CRYSTAL
PRIMVEC
11.2820 0 0
0 11.1747 0 
0 0 11.3552
PRIMCOORD
96 1
Pb       2.877069684   2.644569458   2.850737318
Pb       2.943492671   2.970827697   8.625468191
Pb       2.852103492   8.223766767   3.046390486
Pb       2.950544411   8.501959285   8.722898497
Pb       8.523259288   2.736317539   2.924784010
Pb       8.527031905   2.984040170   8.634010793
Pb       8.522486108   8.315597090   3.071394105
Pb       8.525452973   8.536472348   8.632014388
Cl       2.873638032   2.688940137   5.737450397
Cl       3.271723805   3.186364095   0.086502376
Cl       2.463270914   8.837158198   5.920591469
Cl       3.179003065   7.831326190   0.244019246
Cl       8.627247754   3.092221472   5.767118681
Cl       8.024799399   2.839770391   0.113925489
Cl       9.099167035   8.775060290   5.870926812
Cl       8.268483549   8.474854016   0.208271524
Cl       2.556688965  -0.182590136   2.565014923
Cl       2.950079984   0.162261019   8.581334549
Cl       3.417152739   5.414625276   3.246499136
Cl       2.343211262   5.755879322   8.329657871
Cl       8.958306614  -0.079094552   2.717467321
Cl       8.555733552   0.177825549   8.770829307
Cl       7.722908076   5.512093271   2.900484332
Cl       9.256960384   5.766626695   8.525350078
Cl       5.708359009   2.089232520   3.181172732
Cl       5.725543548   3.175147601   8.142490364
Cl       5.689120449   8.976254215   3.206332729
Cl       5.716456010   8.558458013   8.233874466
Cl       0.074332358   3.047070729   3.106569777
Cl       0.093748910   2.686422437   8.551347164
Cl       0.051291527   7.880296427   2.322866770
Cl       0.096801260   8.874269351   9.288278214
C        5.764190617   6.073359548   6.054548931
C        5.965136920   5.819192616  -0.772360228
C        6.104732779   0.117907349   6.165059525
C        5.296897919  -0.110990949  -0.263883133
C        0.148097693   5.944878505   5.241019129
C        0.014348979   4.908493867   0.342873316
C        0.010949780   0.487256556   5.566837488
C        0.112165466   0.796306284  -0.025341128
N        0.174415457   6.131545186  -0.487823502
N        0.157018072   4.683672841   6.031030810
N        0.039195764  -0.542563486   0.616375296
N        0.073410001  -0.189367474   6.891376865
N        5.418033839   5.532974868   0.582312780
N        5.703701465   4.756582122   5.364050074
N        6.502033276  -0.027639511   0.608869189
N        4.764166488  -0.034418934   5.528280112
H        5.758365432   6.870753020   5.301408763
H        6.790184900   5.128417917  -0.968947666
H        6.598940991   0.987886637   5.719018250
H        5.627269815  -0.215875094  -1.303176317
H        0.109780058   5.689208355   4.177841957
H        0.043260157   4.031604760  -0.314109314
H        0.875919332   0.171589699   4.972523900
H        1.012516497   0.837740063  -0.648007844
H        4.707214689   0.804372748  -0.139583627
H        6.685193271  -0.792152069   5.979047943
H        6.315421590   6.855250285  -0.791411396
H        6.683605648   6.115407667   6.649022023
H        0.149044615   1.559546823   0.761541332
H        0.032226923   1.567668824   5.726742158
H       -0.947300552   4.967977642   0.864041679
H        1.060640103   6.505988261   5.472187385
H        5.165805378   5.674419536  -1.507534776
H        4.892155543   6.163839214   6.710838420
H        4.708641428  -0.986356150   0.036621002
H        5.966093444   0.265758177   7.239374380
H        0.829324724   4.872180742   1.070799095
H       -0.728943041   6.532903206   5.534937471
H       -0.775956868   0.931854501  -0.650999433
H       -0.918094297   0.188836673   5.070342404
H        0.941954160   0.040973574   7.407335069
H        0.862212338  -0.692863097   1.227366636
H        0.960742861   4.082997876   5.782999971
H       -0.583563989   6.204177423  -1.194689380
H        4.871419417  -0.226610402   4.521113097
H        7.059991632   0.820942590   0.392278374
H        6.509734249   4.647683593   4.730417536
H        6.155036192   5.544017946   1.313899732
H       -0.712463251   4.135016708   5.873809128
H        1.061403437   6.122485809  -1.016368468
H        0.045996010  -1.210060365   6.774966556
H        0.004529824  -1.285770195  -0.106796436
H        4.849334115   4.699387135   4.780737621
H        4.937750879   4.615309814   0.595487905
H        4.196139894   0.825071018   5.637747000
H        7.112354749  -0.863118776   0.489118047
H       -0.799921591  -0.612289787   1.221481931
H       -0.728039738   0.070467211   7.492585851
H        0.162903083   6.969690856   0.116428351
H        0.218665748   4.874588803   7.040119073
H        6.241767146   0.024676157   1.603110610
H        4.220050758  -0.819877708   5.928377206
H        4.696715028   6.239980600   0.813574979
H        5.707410381   3.991855168   6.063642653
