CRYSTAL
PRIMVEC
11.2820 0 0
0 11.1747 0 
0 0 11.3552
PRIMCOORD
96 1
Pb       2.896551616   2.880478932   2.994092230
Pb       2.964472257   2.835083301   8.676148509
Pb       2.879087454   8.530257242   3.073854501
Pb       2.994717856   8.409052763   8.775913394
Pb       8.405142621   2.914277937   2.804562871
Pb       8.551179998   2.685866731   8.510787666
Pb       8.492642553   8.439851665   2.848217231
Pb       8.657154384   8.343038666   8.622909849
Cl       2.531377407   2.668143070   5.790922216
Cl       3.429657282   2.753063824   0.166125489
Cl       2.497998722   8.741759287   5.884095727
Cl       3.590717735   8.469748056   0.247909777
Cl       8.740888091   3.288486070   5.614242581
Cl       8.332734884   2.143661354   0.006886296
Cl       8.763626063   7.861980166   5.669867001
Cl       8.284338467   8.940660703   0.045041212
Cl       3.405836753   0.106416894   2.795640040
Cl       2.833657859   0.033772155   8.580201674
Cl       2.236354968   5.711103342   2.888426673
Cl       3.029828994   5.637422250   9.104409927
Cl       7.976640792   0.101220397   3.189705246
Cl       8.658015959  -0.090092932   7.744508652
Cl       8.970238710   5.705159400   2.348875304
Cl       8.534882194   5.532048684   8.759139691
Cl       5.682929911   3.679954459   3.248059633
Cl       5.729085795   3.073565289   8.202520006
Cl       5.699538200   7.997777339   3.337437579
Cl       5.825808447   8.268684055   8.175127673
Cl       0.019483974   2.601057719   2.814818971
Cl       0.065497351   2.621465248   8.582294098
Cl       0.052474691   8.725115706   2.523331052
Cl       0.177008864   8.265021683   9.236222170
C        4.826596255   5.678422814   5.888026838
C        6.164664091   5.574904311  -0.246152076
C        5.314470318   0.337095775   5.778386361
C        5.759058670   0.154434739  -0.824950613
C        0.388858211   5.673731543   6.468123110
C        0.095953222   4.862716938  -0.232252811
C       -0.360099264  -0.014650147   5.181961709
C        0.703616585   0.196032967  -0.119266107
N        0.168387508   6.216445812   0.387238216
N       -0.289511777   5.529082923   5.144834870
N       -0.452034521   0.183511616   0.823473744
N        0.531051506   0.170010295   6.358680376
N        4.953624671   5.552367696   0.624562198
N        6.298602515   5.557314603   6.089816859
N        5.819593501  -0.194124883   0.622086113
N        6.146750760  -0.899688657   5.731252746
H        4.637212548   5.838746560   4.823124006
H        6.815186541   6.399463641   0.066342928
H        5.542634073   0.944383470   4.895606076
H        6.677614221  -0.201692022  -1.303010628
H        1.072249667   4.828956192   6.598690765
H        1.018368361   4.691368203  -0.792990160
H        0.263492514  -0.087594730   4.285158204
H        1.624082795   0.055716308   0.459302571
H        5.673948083   1.240716086  -0.919720014
H        5.559723099   0.888498504   6.692347219
H        5.836950465   5.714880635  -1.280889760
H        4.466261703   6.524833887   6.478745229
H        0.721689096   1.158751035  -0.638982623
H       -1.031198613   0.847103328   5.111566210
H       -0.763149355   4.839910346  -0.909779041
H       -0.378917904   5.662422424   7.250009473
H        6.689652556   4.617839279  -0.146899700
H        4.361447287   4.746066081   6.222639388
H        4.881042398  -0.331711425  -1.257492722
H        4.259231066   0.047573473   5.782345562
H       -0.019464684   4.121824181   0.566560907
H        0.935207731   6.622864681   6.476369438
H        0.579313742  -0.617590460  -0.840817992
H       -0.938141280  -0.934543060   5.321844819
H        1.123249376   1.019135373   6.253993932
H       -0.337140336   0.936999356   1.534796191
H       -0.856959961   4.658919978   5.124074805
H        0.238779634   6.957108043  -0.338723414
H        7.147890602  -0.664882886   5.771177937
H        6.656310936   0.206005365   1.075134925
H        6.809366789   6.409058806   5.804326009
H        4.435384531   6.449886546   0.550692048
H        0.389280004   5.517283561   4.365208743
H        0.969876798   6.282247341   1.035668688
H        1.173764626  -0.635043443   6.466251611
H       -0.495941708  -0.725283184   1.321470976
H        6.684467129   4.763343660   5.554754829
H        5.206428435   5.378963489   1.609787995
H        5.977614225  -1.451544937   4.872684259
H        5.870269365  -1.214603475   0.735863868
H       -1.347802579   0.363637690   0.346105237
H       -0.014776243   0.286913629   7.223354913
H       -0.677900251   6.379154655   0.960629224
H       -0.954508473   6.310201147   5.006118011
H        4.979865083   0.124187072   1.140959012
H        5.954122438  -1.521386728   6.546716314
H        4.323946095   4.774761028   0.340050469
H        6.530444231   5.382080126   7.079950886
