CRYSTAL
PRIMVEC
11.2820 0 0
0 11.1747 0 
0 0 11.3552
PRIMCOORD
96 1
Pb       2.993129313   2.757587308   3.051726139
Pb       2.854838096   2.920884405   8.794611678
Pb       2.869276304   8.275910805   3.120854817
Pb       2.730434158   8.450639388   8.667712840
Pb       8.626906124   2.737027282   2.871294855
Pb       8.509614921   2.947964665   8.583394942
Pb       8.498555400   8.313453515   2.891659295
Pb       8.395782902   8.413859184   8.419631815
Cl       2.935688003   2.943306920   5.924151375
Cl       2.681475876   2.585242555   0.239598856
Cl       2.984130782   8.478495374   5.916797995
Cl       2.729845475   8.429197800   0.224128205
Cl       8.623695834   3.033964339   5.725990525
Cl       8.470154413   2.755571904   0.036829978
Cl       8.383178952   8.314989704   5.665127172
Cl       8.338135889   8.303899223  -0.028755040
Cl       3.228718477  -0.064353090   3.288974961
Cl       2.310294761   0.132186340   8.464365255
Cl       2.149118643   5.497044876   2.791759568
Cl       3.598317593   5.704867457   8.646981315
Cl       8.280416405  -0.061595813   2.659951907
Cl       8.836700017   0.100913980   8.393037334
Cl       9.358004346   5.524426118   2.832288711
Cl       7.577183371   5.658749582   8.664585710
Cl       5.816655387   3.124173988   3.175139184
Cl       5.665779011   2.192095355   8.528113123
Cl       5.646436609   8.007404796   2.682182310
Cl       5.563772884   9.125321798   8.773635081
Cl       0.165374894   2.095288848   3.350754016
Cl       0.057028072   3.259325612   8.282950743
Cl       0.040818672   8.761263721   2.734469151
Cl      -0.090325653   8.060660214   8.797532895
C        5.524052683   5.876534317   5.413227218
C        5.625878983   5.266855443   0.430970166
C        6.124134619  -0.042212398   5.338393452
C        5.452696605   0.086582231   0.466684954
C        0.085128227   6.042200608   5.997657524
C        0.122312915   5.279830229  -0.339411528
C       -0.015340770  -0.666907535   5.580528617
C       -0.282104288  -0.094963856  -0.130604464
N       -0.048794729   6.542864269   0.427128871
N        0.160382235   4.739924874   5.280117696
N        0.910943880  -0.030510017   0.760693560
N       -0.040468579   0.635902200   6.300474148
N        5.546263713   6.578310408  -0.272624241
N        5.726680522   4.622126239   6.190655705
N        6.730488389   0.041609519  -0.300427893
N        4.957991286  -0.039250601   6.269630706
H        5.272130939   5.609982947   4.382234961
H        6.364053950   4.640845567  -0.082349586
H        7.043225551  -0.010024035   5.934367442
H        4.916613109   1.002362780   0.194672379
H       -0.725494346   6.635377627   5.559705968
H        0.436937931   5.526844385  -1.357636827
H        0.898433580  -0.712942655   4.980380301
H        0.059151920  -0.230377242  -1.162348072
H        5.687861677   0.078698425   1.535483297
H        6.052879703   0.833232557   4.683806324
H        4.636753629   4.794317154   0.401929672
H        6.452223082   6.458229847   5.436197201
H       -0.843567998   0.841261626  -0.034354675
H       -0.892571918  -0.721523303   4.928779667
H       -0.838031952   4.751796324  -0.357231404
H        1.042935167   6.562802053   5.884870477
H        5.927153062   5.444986857   1.467490342
H        4.712631488   6.444766789   5.880190849
H        4.856758174  -0.794452333   0.202369215
H        6.089147564  -0.958451483   4.739481007
H        0.876590872   4.667437018   0.167230053
H       -0.113722144   5.843220789   7.054942552
H       -0.903660690  -0.940923156   0.182609516
H       -0.034359672  -1.476170074   6.319389548
H       -0.025163579   1.407402124   5.615230063
H        1.510199059   0.787138515   0.528543864
H        0.368191659   4.884142719   4.278812241
H       -0.726274369   7.168897637  -0.033011188
H        4.961065811   0.807456801   6.866811517
H        7.322782749   0.870162396  -0.095295451
H        6.487219507   4.051535521   5.785816273
H        5.226283015   6.443053821  -1.247034569
H       -0.732167203   4.220941426   5.358998521
H        0.839698184   7.062338531   0.515798104
H        0.772530381   0.717566036   6.939123224
H        1.483686914  -0.888341008   0.673070098
H        4.863951677   4.049289700   6.197710747
H        6.465454203   7.056472373  -0.283079885
H        4.999650791  -0.845252392   6.919884045
H        6.547974567   0.026847294  -1.313460659
H        0.635939908   0.056503898   1.749111053
H       -0.889712616   0.707404913   6.889519339
H       -0.408013538   6.340615895   1.379100292
H        0.910113621   4.144687909   5.668124410
H        7.275671968  -0.807291569  -0.069526073
H        4.075735237  -0.090222414   5.742230205
H        4.879102636   7.208636986   0.196575710
H        5.991536103   4.844103750   7.165220663
