CRYSTAL
PRIMVEC
11.2820 0 0
0 11.1747 0 
0 0 11.3552
PRIMCOORD
96 1
Pb       2.755207628   2.865861273   2.867327678
Pb       2.882132262   2.808282218   8.519147505
Pb       2.901790570   8.426915481   2.725559627
Pb       2.899689551   8.279970324   8.437885856
Pb       8.505334903   2.949662319   3.236531753
Pb       8.571388252   2.750044340   8.935345111
Pb       8.477047540   8.526794750   2.910707404
Pb       8.523233745   8.306323190   8.643646906
Cl       2.865754828   3.393645999   5.687367443
Cl       2.889747053   2.434038698   0.016028024
Cl       2.535011504   7.798542999   5.541212371
Cl       3.324339526   8.823236698  -0.128137176
Cl       8.703759154   2.524452390   6.097070641
Cl       8.400907258   3.056319408   0.423610821
Cl       9.179558787   8.552081144   5.791917817
Cl       8.046515662   8.582749248   0.090708113
Cl       2.522703298   0.036931862   2.750358211
Cl       2.622174420  -0.060747398   8.199489434
Cl       3.242899242   5.630795495   2.366867381
Cl       3.326837465   5.539391816   9.073707991
Cl       8.645270935   0.129964038   3.296595277
Cl       8.437401141  -0.063528297   8.712750925
Cl       8.262499939   5.757726563   3.374513290
Cl       8.660872945   5.542410551   9.013353039
Cl       5.647794044   2.986697750   3.060086944
Cl       5.696275813   2.454416872   8.900385981
Cl       5.700450640   8.623731405   3.639268528
Cl       5.692431583   8.661502712   8.072829246
Cl      -0.009055668   3.588991446   2.881431015
Cl       0.071009881   2.372741862   8.906399765
Cl       0.040467913   8.095813713   2.410039754
Cl       0.046080911   8.507895504   9.160811463
C        6.002156633   5.359328690   6.230230052
C        6.032197112   5.883690841   0.123886410
C        5.402296480   0.492544338   5.697618945
C        5.849322583   0.223071180   0.765311218
C       -0.135301489   5.443180859   6.465740436
C        0.488072994   5.366911635  -0.212831142
C        0.568630523   0.138468878   5.356479860
C       -0.404056428   0.228557583   0.568393351
N       -0.819189508   5.759962185   0.390387549
N       -0.020754565   5.995734060   5.087226983
N        0.772482680  -0.099895832  -0.284747330
N       -0.364143126   0.038404146   6.516307427
N        5.353382198   4.558402111   0.137905507
N        5.224162713   5.653396242   4.992402560
N        5.684537325  -0.288971614  -0.624871909
N        6.674073768  -0.267132201   5.870883877
H        5.662532299   4.398783312   6.634175839
H        7.111333952   5.717708935   0.164663485
H        4.950109424   0.194479550   4.744424549
H        4.950797305   0.789922878   1.030446689
H       -0.214537940   6.279676093   7.169752380
H        0.761071392   6.121658892  -0.956510928
H        1.232476216  -0.732340987   5.368705941
H       -1.305933856   0.190226021  -0.053062373
H        6.735485992   0.866067908   0.804410707
H        5.632749679   1.562555023   5.690887291
H        5.693215199   6.451408878   0.996754648
H        5.821787659   6.159397931   6.957292889
H       -0.267474235   1.234815997   0.980587263
H        1.157519336   1.057478703   5.458102034
H        0.376285105   4.384794304  -0.684244524
H        0.762542163   4.849701087   6.669968647
H        5.755987374   6.406317698  -0.798034805
H        7.063886291   5.309902588   5.964620360
H        5.968624126  -0.633478075   1.438483625
H        4.733093386   0.246220323   6.530082122
H        1.238967634   5.326336763   0.582976618
H       -1.028032165   4.811344464   6.523253464
H       -0.462324308  -0.509779886   1.374183644
H       -0.025612108   0.154786190   4.436913040
H        0.163509090   0.031818475   7.401168435
H        0.903968501   0.622386008  -1.011263151
H        0.826377524   6.598737390   5.025779688
H       -1.538786383   5.859456247  -0.347390254
H        7.333507544  -0.085828041   5.088269770
H        5.576130881   0.490296247  -1.299184208
H        4.214533126   5.694976638   5.188406121
H        5.562995577   4.038056665   1.009318614
H       -0.835919089   6.582356293   4.862145915
H       -0.711361453   6.649031677   0.916355981
H       -0.926984246  -0.831764472   6.447348257
H        0.647031038  -1.008751084  -0.770656716
H        5.363870924   4.911329905   4.281755064
H        5.629591081   3.966495296  -0.664418881
H        6.485646362  -1.278390167   5.896284995
H        4.855040325  -0.915832226  -0.672696555
H        1.634588114  -0.141694721   0.277865885
H       -1.021240106   0.839206527   6.537243493
H       -1.139282969   5.040473880   1.053372665
H        0.041141954   5.243807782   4.373716352
H        6.505298492  -0.843239429  -0.905884668
H        7.151132116  -0.023074042   6.756634143
H        4.332132130   4.670063212   0.084852541
H        5.496280669   6.561577346   4.568787032
