CRYSTAL
PRIMVEC
11.2820 0 0
0 11.1747 0 
0 0 11.3552
PRIMCOORD
96 1
Pb       2.679773140   2.890313202   2.956496093
Pb       3.112214484   2.828740790   8.715029700
Pb       2.675711268   8.389315037   2.985956370
Pb       3.052562716   8.377131607   8.738939354
Pb       8.321442870   2.841070070   2.851929874
Pb       8.773022575   2.854972698   8.515465255
Pb       8.271393152   8.410402138   2.941491266
Pb       8.719989770   8.510528205   8.683313329
Cl       3.089434349   2.678732972   5.819225380
Cl       2.626398807   2.464202621   0.149795369
Cl       3.050406431   8.684315782   5.811789315
Cl       2.700457480   8.756350045   0.154149211
Cl       8.609725519   3.527218957   5.707733788
Cl       8.755660861   2.821014730   0.043439951
Cl       8.311607604   8.245719546   5.843944147
Cl       8.748636528   8.371609884   0.172229240
Cl       2.156110998   0.059839841   3.066801675
Cl       3.672321125   0.017063640   8.667708680
Cl       3.313498911   5.643094885   3.196448000
Cl       2.666054611   5.610866424   8.667666011
Cl       8.783978241   0.025633412   2.773933103
Cl       8.233346463   0.087062321   8.232864903
Cl       7.691716173   5.610231134   2.559052687
Cl       9.261038176   5.675598916   8.920112045
Cl       5.473444113   2.433194059   2.666568157
Cl       5.974179991   3.337904215   8.723273637
Cl       5.454528055   8.996466866   2.779889636
Cl       5.909380585   8.056848022   8.876390174
Cl      -0.166206798   3.289988976   2.735933101
Cl       0.322722119   2.292850708   8.422217968
Cl      -0.203640401   7.717661422   3.140844187
Cl       0.248086591   8.711775204   8.111756360
C        5.417656151   5.850433767   6.107241885
C        5.070917122   5.595894120   0.247658297
C        5.999362974   0.324884407   5.429747847
C        6.238642234   0.095723091  -0.259158896
C        0.611683513   5.129537015   5.893966541
C        0.776717091   5.703953928   0.220286250
C       -0.378659581   0.098321774   5.418589654
C       -0.009779019  -0.247030212  -0.532668696
N       -0.675949372   5.620590882   0.527634894
N       -0.406571539   6.216074867   5.981568125
N       -0.059656709   0.547851831   0.726748229
N        0.889420537   0.073866771   6.200409106
N        6.402910163   5.630612204  -0.420311332
N        5.624692496   4.623420501   5.285830904
N        4.956441212   0.053740131   0.500223321
N        5.809806609  -0.901118743   6.254700262
H        6.262009625   6.528670092   5.940898600
H        4.293657421   5.598249531  -0.525633011
H        6.109815287   0.026392978   4.382300743
H        7.065303680   0.154879040   0.458096833
H        1.586605145   5.579986289   5.680507895
H        1.330191627   5.743610540   1.165798330
H       -0.429902226   1.039783382   4.860485184
H        0.916126000  -0.001519564  -1.062925561
H        6.232903804   0.974308729  -0.913178836
H        6.898924198   0.842222650   5.783930469
H        4.979275684   6.478226044   0.889735512
H        5.370803061   5.557084092   7.160437809
H       -0.876833524   0.019654264  -1.148247037
H       -1.218850406   0.016857047   6.118616764
H        0.963257059   6.608423109  -0.365782793
H        0.315565861   4.453678023   5.085090132
H        5.010579920   4.687466563   0.856809519
H        4.479448764   6.322032155   5.797405611
H        6.313961479  -0.817103238  -0.859378370
H        5.116672729   0.963596291   5.547061872
H        1.066991540   4.816835160  -0.351017726
H        0.640993470   4.596777213   6.849079474
H       -0.031627558  -1.309588393  -0.273358389
H       -0.377912188  -0.744671883   4.719958547
H        0.901263364   0.856360919   6.886000704
H       -0.055771816   1.557163110   0.535000859
H       -0.458347086   6.742297022   5.084649469
H       -0.981901951   6.441852022   1.067984740
H        6.621196147  -1.544138608   6.166186381
H        4.850868787   0.906289965   1.076639161
H        6.544862474   4.187752373   5.502553376
H        6.487075154   6.482399106  -1.005131002
H       -0.178826486   6.895447449   6.730096615
H       -0.865643650   4.776959869   1.093163765
H        1.703504669   0.150952315   5.575980407
H        0.753225156   0.350438907   1.343204919
H        5.605875329   4.846897794   4.281665446
H        6.510129866   4.814302477  -1.052480200
H        4.951314208  -1.418957633   5.973111754
H        4.943065765  -0.758358500   1.147163665
H       -0.915987475   0.343214319   1.281104242
H        0.960569917  -0.810959280   6.733664438
H       -1.232117229   5.579852815  -0.348602370
H       -1.337034629   5.826909215   6.183405824
H        4.153954812  -0.017819234  -0.140601162
H        5.700952639  -0.660780682   7.249640130
H        7.147101196   5.624974144   0.295577316
H        4.867869580   3.932302628   5.462277416
