CRYSTAL
PRIMVEC
11.2820 0 0
0 11.1747 0 
0 0 11.3552
PRIMCOORD
96 1
Pb       2.661058863   2.644829213   2.784476702
Pb       2.843371001   3.006699551   8.558297574
Pb       2.940433524   8.190940710   3.023635116
Pb       3.114619158   8.546591249   8.797671381
Pb       8.259672545   2.601198280   3.028373569
Pb       8.540225722   2.974869983   8.648260500
Pb       8.520292892   8.210588387   2.940970048
Pb       8.801472265   8.589704198   8.567468234
Cl       2.938649090   2.674225311   5.641180793
Cl       2.406886246   3.422905307  -0.020825596
Cl       2.840171214   8.536525735   5.940342013
Cl       3.364909679   7.766911638   0.246534974
Cl       8.067109898   2.312398851   5.939489090
Cl       8.422569408   2.802397944   0.211993716
Cl       8.982001808   8.861693512   5.654644332
Cl       8.625739859   8.389226691   0.025566131
Cl       2.910735237  -0.180887983   2.908401521
Cl       2.862617834   0.203427673   8.679103604
Cl       2.140714999   5.414780788   3.131251155
Cl       3.666752373   5.783360093   8.443157973
Cl       7.994625976  -0.198904539   2.485306717
Cl       9.070710240   0.215558827   9.111550886
Cl       8.870684456   5.372045921   3.438987762
Cl       8.222152379   5.818125407   8.153279946
Cl       5.452035846   3.093542708   2.605394365
Cl       5.701346934   2.591190354   9.026585537
Cl       5.728516029   7.851173955   3.331945700
Cl       5.961759577   9.161509980   8.403082464
Cl      -0.186428520   2.027115626   3.186452885
Cl       0.051630805   3.334419403   8.246141759
Cl       0.076733753   8.595346239   2.562415616
Cl       0.323859624   8.095073857   8.990147257
C        5.627370767   5.102548029   5.479253596
C        6.388547686   5.943058291   0.008261001
C        5.668650392  -0.317826446   5.213525387
C        5.117434663   0.003042913   0.341637796
C        0.209094022   6.100668229   6.122970734
C       -0.616297470   5.245241074   0.215200493
C        0.100516078   0.333616556   6.371939708
C        0.656568576   0.007689535  -0.108326634
N        0.479029435   6.252308969   0.280658661
N        0.025173930   4.803294690   5.414903105
N       -0.652184307   0.069454333   0.600473006
N        0.395119053  -0.613365168   5.259032759
N        5.296692429   4.931757247  -0.046625904
N        5.801563253   6.409205529   6.173245731
N        6.427307020  -0.058008929  -0.364870805
N        5.364293533   0.627821726   6.324849404
H        6.436722524   4.986624620   4.751925838
H        6.417096787   6.481783698  -0.944036364
H        6.624122263  -0.809742775   5.426942667
H        4.378114050   0.445241158  -0.336429455
H        0.177402150   6.906281215   5.381531613
H       -0.401482878   4.555951828  -0.608127993
H       -0.857678917   0.824009664   6.167514074
H        1.397916609  -0.430143759   0.570268389
H        5.238421603   0.614359679   1.241422358
H        5.737689633   0.249358888   4.279696328
H        7.334648090   5.416814815   0.175239075
H        4.657037648   5.096207410   4.971326422
H        0.951975024   1.025626070  -0.385907561
H        0.908154560   1.068945895   6.426335468
H       -1.559476770   5.775820840   0.045071391
H        1.178843683   6.093392546   6.631973084
H        6.175743306   6.635467059   0.829439414
H        5.667148508   4.305415806   6.229494492
H        4.819455198  -1.015563328   0.613913030
H        4.860379238  -1.051453276   5.149645748
H       -0.652777269   4.702555907   1.164887704
H       -0.600084905   6.215632997   6.850725028
H        0.534901003  -0.607643266  -1.005213301
H        0.042349650  -0.231637464   7.307681927
H        0.529928498  -0.109210340   4.370976421
H       -0.598014411   0.673729230   1.442681358
H        0.792712782   4.671471273   4.732429443
H        0.518709358   6.819257886  -0.590626401
H        6.157929906   1.286482778   6.444688387
H        6.732135626   0.879431105  -0.662453138
H        5.797018430   7.174801982   5.477062627
H        5.430489190   4.265141619  -0.830507399
H       -0.861756944   4.811400969   4.873251827
H        1.388524881   5.789561188   0.414166234
H       -0.398002145  -1.274168009   5.147865925
H       -0.953952796  -0.866924204   0.904179299
H        6.689141949   6.412042818   6.713250802
H        4.385054316   5.390790339  -0.178062151
H        5.218640526   0.123825978   7.211173615
H        6.372941116  -0.657735723  -1.210360239
H       -1.381233856   0.440039324  -0.031566840
H        1.251210722  -1.171194914   5.450863749
H        0.344049247   6.915892547   1.066849834
H        0.021250374   4.030822097   6.103460125
H        7.154596113  -0.434033137   0.265721725
H        4.512016951   1.188710354   6.125152444
H        5.262642256   4.368820027   0.827581639
H        5.034138305   6.541315183   6.855753833
