CRYSTAL
PRIMVEC
11.2820 0 0
0 11.1747 0 
0 0 11.3552
PRIMCOORD
96 1
Pb       2.776625963   2.695603886   3.210902410
Pb       2.889159687   2.879558188   8.829155287
Pb       2.902204705   8.314877295   2.854794091
Pb       2.991041107   8.460314999   8.514235400
Pb       8.401671968   2.768149340   3.050440501
Pb       8.461647087   2.967563482   8.658956497
Pb       8.491643359   8.333197419   2.746609802
Pb       8.531223993   8.418401819   8.352929121
Cl       2.543699807   2.286484330   6.074007422
Cl       3.158568703   3.197122721   0.376719303
Cl       3.069055524   8.560056184   5.694736327
Cl       2.643992278   8.348392944  -0.012668709
Cl       8.818138397   2.710273043   5.856566704
Cl       7.889725275   2.754504315   0.135864625
Cl       8.727520747   8.213129207   5.552185169
Cl       8.597365025   8.846445697  -0.147167977
Cl       2.959802634  -0.086418353   2.922176737
Cl       3.745721688   0.100702325   8.862437878
Cl       2.726562408   5.507058969   3.587202434
Cl       2.446542276   5.644701332   8.112580911
Cl       8.357083466   0.015371369   2.787003445
Cl       8.062120523   0.116031602   8.269218780
Cl       8.660657079   5.554908770   2.300028318
Cl       9.210428594   5.682989965   8.855521555
Cl       5.589455698   2.958979194   3.667217580
Cl       5.649360761   3.393695807   8.241999834
Cl       5.691446019   7.752775292   2.886281436
Cl       5.748020421   7.929891555   8.355703956
Cl      -0.048211686   2.849953439   2.828411235
Cl       0.020922643   2.168541816   9.203996641
Cl       0.053076890   8.318032972   2.827701370
Cl       0.114046753   9.041572663   8.166062994
C        6.481268279   5.574732134   5.755160542
C        5.761268571   6.017096340  -0.260282272
C        5.845756693  -0.515003290   5.439153013
C        5.300793284  -0.113585791   0.702206641
C       -0.342607038   5.383883882   5.678131696
C        0.471604737   5.738349446   0.023538927
C        0.001127272  -0.250014891   5.047622289
C        0.116713858   0.294383607   0.798159218
N       -0.380575805   4.516963224   0.115972403
N        0.370406187   6.692327302   5.658027652
N        0.143580387  -0.744440435  -0.270008762
N       -0.120558107   0.527795062   6.312605936
N        5.664078790   5.148064248   0.948319027
N        5.014545586   5.796294582   5.874996175
N        6.300852749  -0.019591201  -0.398676232
N        5.679812992   0.777788258   6.164216697
H        6.964363207   6.005692817   6.637146699
H        5.748542029   5.383109410  -1.154044630
H        6.819063605  -0.504938666   4.937574128
H        4.637986296   0.756253712   0.642683919
H       -0.020570560   4.802599725   4.807246872
H        1.519198081   5.435169611   0.116475589
H       -0.002881684   0.450248612   4.205565195
H       -0.785473346   0.899912627   0.667901441
H        5.833493765  -0.125640780   1.658508927
H        5.035145598  -0.611030642   4.708995189
H        6.698129550   6.583515591  -0.207672089
H        6.833328647   6.071149109   4.845768057
H        1.012374834   0.916879537   0.704894625
H       -0.847665285  -0.936787216   4.976658437
H        0.196044448   6.413481485   0.841767494
H       -1.417968803   5.578819762   5.635633256
H        4.907396251   6.703545738  -0.265232470
H        6.665035089   4.498923239   5.707744018
H        4.715082954  -1.029097994   0.567809394
H        5.797797421  -1.329366618   6.170374991
H        0.295035701   6.211118106  -0.948184043
H       -0.085067550   4.866512312   6.607888011
H        0.100372056  -0.207735803   1.769926647
H        0.944914197  -0.805183589   5.072372581
H       -0.971136176   1.120245022   6.307637684
H        0.193293781  -0.305065086  -1.198788906
H        0.174896941   7.213304763   4.780281017
H       -0.228696490   4.021222300   1.019558047
H        5.682833303   1.577381154   5.505525455
H        6.844873777   0.861084431  -0.319704307
H        4.782480438   6.799154654   5.954899508
H        6.473088574   4.510335196   0.990260526
H        1.388995175   6.559365194   5.716879614
H       -0.184392359   3.845418295  -0.650604701
H        0.700006754   1.155662535   6.423238102
H       -0.722340938  -1.321138402  -0.245399823
H        4.637788407   5.335919649   6.717427426
H        4.804635252   4.564034249   0.914777547
H        6.450139344   0.891458475   6.846313244
H        5.821981362  -0.026274212  -1.313797483
H        0.957291269  -1.385736016  -0.168349833
H       -0.157006789  -0.116905540   7.120188903
H       -1.376887080   4.766162465   0.073816578
H        0.093782485   7.299094080   6.445576654
H        6.986183325  -0.798970857  -0.371658825
H        4.796973501   0.801095822   6.696829598
H        5.663127813   5.736302767   1.801177054
H        4.488339791   5.445334502   5.052528248
