CRYSTAL
PRIMVEC
11.2820 0 0
0 11.1747 0 
0 0 11.3552
PRIMCOORD
96 1
Pb       2.790787089   2.709037717   2.916092360
Pb       2.971526629   2.885880099   8.705682452
Pb       2.852383049   8.335106745   2.833479877
Pb       2.954635602   8.385708046   8.542019164
Pb       8.474310162   2.733995997   2.973811608
Pb       8.620949444   2.897462359   8.680534423
Pb       8.421286254   8.328337415   2.864479416
Pb       8.563021864   8.396030313   8.530352744
Cl       3.216368020   2.903642224   5.776317097
Cl       3.024812970   2.090857932   0.074977599
Cl       2.384903638   8.123640504   5.640250824
Cl       2.701619163   8.875143393  -0.049961715
Cl       8.372389766   3.290933799   5.795720950
Cl       8.157395647   2.634189924   0.116416880
Cl       8.962388027   7.897801847   5.641921721
Cl       8.623411188   8.488384281  -0.004203103
Cl       2.422452802  -0.081831418   3.428651053
Cl       3.409973818   0.051373429   8.272092701
Cl       3.062541590   5.520073513   3.085740278
Cl       2.583648648   5.666666153   9.290346491
Cl       8.771827112  -0.073946405   3.478512693
Cl       8.419935526   0.056810575   8.773466710
Cl       7.950398309   5.527994245   2.623216986
Cl       9.024853580   5.667232994   9.131874509
Cl       5.636510101   2.356984586   3.060674980
Cl       5.784435500   3.347392579   8.792462268
Cl       5.619171461   8.633212335   3.468830617
Cl       5.759744667   8.172897448   9.006010420
Cl       0.003338638   3.097866426   3.328245401
Cl       0.149795339   2.610228605   8.937658313
Cl      -0.004320771   8.013690682   2.677157151
Cl       0.105942719   8.810168885   8.563237836
C        5.562833361   6.072264723   6.138234677
C        5.230307075   5.597513194   0.597534365
C        6.224610609   0.108520981   6.277512534
C        5.757688921  -0.374157840   0.550874563
C        0.267957962   5.224584467   6.480833250
C        0.071727942   5.151663454   0.580558073
C        0.038736813   0.464889697   6.273095271
C       -0.362506610   0.121158719   0.657027204
N        0.094240729   6.438934011  -0.169228268
N        0.084377544   5.797533619   5.119445858
N        0.437628885   0.018323824  -0.596737418
N       -0.026249265  -0.736088741   5.392796642
N        6.394063102   5.646715141  -0.330569385
N        5.685344848   4.927021319   5.192639810
N        5.781640621   0.387833236  -0.731512512
N        5.111717756   0.084135570   5.287862898
H        4.649729376   6.629032010   5.896746225
H        4.310260277   5.693808428   0.010563941
H        6.086137519  -0.718310571   6.982641618
H        4.826069379  -0.135979478   1.074872203
H       -0.604025168   4.606488160   6.713121728
H        0.156638291   4.328358052  -0.138636840
H       -0.003336918   1.359331055   5.639938460
H       -1.414734708   0.258075223   0.386626198
H        6.621666325  -0.066884016   1.150919151
H        6.192203887   1.062265116   6.815598410
H        5.322940452   6.417888462   1.317166388
H        6.441969820   6.716446918   6.020866153
H       -0.001171384   0.982414333   1.231765178
H        0.979709080   0.436768669   6.833677234
H       -0.873934314   5.087448511   1.130294446
H        0.356120542   6.045927411   7.199817033
H        5.253124500   4.641023476   1.131114344
H        5.516461358   5.670426381   7.156726215
H        5.809573566  -1.441481806   0.314076324
H        7.171667857   0.008444468   5.735759393
H        0.911746598   5.145188808   1.283936046
H        1.179210838   4.616930335   6.476351412
H       -0.232413428  -0.799514772   1.236186711
H       -0.809602783   0.439201960   6.965219065
H        0.787153425  -0.742879782   4.747123973
H        0.344637761   0.881145855  -1.173133662
H       -0.763804185   6.395297391   5.092069793
H       -0.709609238   6.479755298  -0.820979590
H        4.201779750   0.188804435   5.755659824
H        5.758391145   1.401418835  -0.558958688
H        5.726084722   5.245053372   4.217231354
H        6.398636881   6.526825444  -0.876846305
H        0.006121753   5.041014820   4.412830462
H        0.961095209   6.506967270  -0.730926661
H       -0.887515953  -0.712259467   4.812070142
H        0.145693271  -0.785223249  -1.184206059
H        4.875851257   4.279764740   5.285911406
H        6.351231317   4.863952380  -1.010256926
H        5.119514184  -0.800104171   4.741761331
H        4.969788905   0.157453481  -1.332719200
H        1.436243515  -0.116750422  -0.384465994
H       -0.012508435  -1.605677468   5.941145944
H        0.039238410   7.234077374   0.489064005
H        0.886489832   6.399309630   4.874721347
H        6.648501262   0.193441533  -1.273983049
H        5.208420574   0.862764584   4.603569911
H        7.276498482   5.573870025   0.195161305
H        6.553645120   4.381292506   5.382627336
