CRYSTAL
PRIMVEC
11.2820 0 0
0 11.1747 0 
0 0 11.3552
PRIMCOORD
96 1
Pb       2.950132953   2.735091639   3.032422941
Pb       2.814019526   2.607804963   8.788179025
Pb       2.878324862   8.379176912   3.240345911
Pb       2.970524800   8.214701944   8.847289289
Pb       8.633776234   2.982967633   2.664433843
Pb       8.539468486   2.832004417   8.387227368
Pb       8.548083464   8.551459546   2.823403995
Pb       8.537725524   8.417959279   8.527232941
Cl       3.212775344   3.093692473   5.934823868
Cl       2.810008925   1.847199594   0.280513150
Cl       2.751058433   7.475045204   6.040299047
Cl       3.028770555   8.696625657   0.371329539
Cl       8.689269970   2.956622077   5.528428067
Cl       8.461346717   2.900500116  -0.155205351
Cl       8.745186907   8.601707184   5.683630325
Cl       8.777452857   8.539030674   0.015570136
Cl       3.274949205   0.011702486   3.771633935
Cl       2.609127135  -0.185220632   8.440951467
Cl       2.520003603   5.591614349   2.660564675
Cl       3.346133025   5.392548831   9.308399256
Cl       8.275685443   0.190257536   2.674141474
Cl       8.865602832   0.033768635   8.302014525
Cl       9.225286522   5.780617716   2.692267675
Cl       7.806563803   5.615846798   8.594384593
Cl       5.761538114   3.071724158   2.571192875
Cl       5.670372993   2.514578035   8.556316398
Cl       5.693642008   8.445508652   2.979217765
Cl       5.719128103   8.659390038   8.147330675
Cl       0.143794832   2.522350208   3.148079948
Cl       0.095060285   3.219928070   8.228659913
Cl       0.107171245   9.121750418   2.783966068
Cl       0.137704830   8.034754241   9.045274428
C        6.104937381   5.714134026   5.284459431
C        5.991678980   6.140886655   0.443805140
C        6.312686288   0.224211492   5.448020062
C        6.011767239  -0.219005585  -0.204391321
C       -0.444560527   6.045724785   5.770308469
C        0.135465222   5.009331668  -0.088975175
C        0.359485469   0.095225623   6.013791895
C       -0.479493251   0.554194398  -0.134142854
N        0.202605183   6.377387547   0.496693053
N        0.494473773   4.915491647   5.515536896
N        0.438171912  -0.619991625  -0.134354030
N       -0.889018336   0.148812951   5.204313460
N        5.806840895   4.790323243  -0.154651029
N        5.318014377   5.526155592   6.535858436
N        5.346292117  -0.041857414   1.117738331
N        5.179381981   0.153756509   6.411744233
H        6.863463073   4.925393077   5.226680390
H        6.265985707   6.841779881  -0.352084426
H        7.247819455   0.173828139   6.015798852
H        7.049232389  -0.524700314  -0.033726465
H       -1.455977473   5.638109853   5.865526286
H        0.891507336   4.931963855  -0.876314145
H        0.088888115   0.198606720   7.067965666
H       -0.387554740   1.073016923  -1.094134502
H        5.976453087   0.732024236  -0.747280868
H        6.248496211   1.167929705   4.896067973
H        6.797277365   6.086681449   1.184759217
H        6.581496855   6.700594267   5.320294720
H       -0.186978933   1.215546252   0.688419740
H        1.021140079   0.910326123   5.701406657
H       -0.865529255   4.855731479  -0.504435155
H       -0.398810997   6.739939732   4.926685783
H        5.053696201   6.446528538   0.919049433
H        5.424560034   5.652532140   4.427568716
H        5.473423089  -0.993953458  -0.761003097
H        6.236906767  -0.622665581   4.758472408
H        0.328336952   4.281922998   0.708846146
H       -0.133977577   6.548881251   6.692449582
H       -1.502887821   0.193887052   0.004399573
H        0.847404940  -0.870143093   5.839672099
H       -1.404814228   1.036998347   5.353254418
H        1.415956133  -0.325513953  -0.266885955
H        0.237548366   4.374903258   4.672255476
H        0.072081576   7.089720220  -0.244380377
H        5.215708485   0.945929967   7.082047763
H        5.835185308   0.667250012   1.683875281
H        5.942883137   5.578083367   7.363450664
H        6.659259801   4.479349794  -0.643538038
H        0.488742645   4.257806779   6.321615669
H        1.111828175   6.523019372   0.962549898
H       -1.515869926  -0.644318540   5.452400135
H        0.208511831  -1.296607558  -0.884531684
H        4.826512619   4.614485813   6.535963595
H        5.020835412   4.809379400  -0.834991582
H        5.222846075  -0.722740458   6.968440096
H        5.342975123  -0.924064923   1.665148495
H        0.384073680  -1.128054623   0.771083469
H       -0.684645681   0.075368700   4.199536013
H       -0.540778873   6.482255522   1.212535643
H        1.455899731   5.263037030   5.393419291
H        4.372379626   0.280940430   0.989893076
H        4.282765604   0.186612607   5.901306707
H        5.616650610   4.095645598   0.591356045
H        4.585031507   6.254941127   6.608053013
