CRYSTAL
PRIMVEC
11.2820 0 0
0 11.1747 0 
0 0 11.3552
PRIMCOORD
96 1
Pb       2.772657479   2.941706462   3.028180206
Pb       2.779516236   2.785513782   8.701881820
Pb       3.011516746   8.612966674   3.120283833
Pb       2.982715903   8.315724628   8.765991512
Pb       8.393045459   2.826242972   2.884914501
Pb       8.411132609   2.679099227   8.587739477
Pb       8.635816658   8.496856554   2.904121204
Pb       8.577498817   8.182253662   8.706073634
Cl       2.786895428   2.542349990   5.894406053
Cl       2.831883819   3.578349647   0.230640744
Cl       2.425936376   8.760099715   6.011753441
Cl       3.573621390   8.160578098   0.360227859
Cl       8.534493425   2.076792318   5.761518255
Cl       8.447158593   3.182697779   0.085608376
Cl       9.156798862   8.589965520   5.859126325
Cl       7.954800292   8.248879402   0.175593987
Cl       3.040792992   0.193366503   2.327160468
Cl       3.118658488  -0.066707108   9.136041435
Cl       2.624714082   5.816551042   3.592959640
Cl       2.371982677   5.567292797   8.223131924
Cl       7.699282122   0.066182290   2.663400734
Cl       7.818499451  -0.191065501   8.851301092
Cl       8.802065746   5.718806010   2.809614574
Cl       9.122493587   5.443110509   8.269894378
Cl       5.572304663   3.393580061   2.926785299
Cl       5.581232698   3.224700687   8.252245188
Cl       5.840443625   8.181503544   3.632303039
Cl       5.708637865   8.050775545   7.886707588
Cl      -0.048082135   2.662394688   2.605326039
Cl      -0.031479493   2.030574414   8.724701097
Cl       0.233527097   8.535809479   2.267003190
Cl       0.078818788   8.771317474   9.063319723
C        6.481176896   5.255991710   5.683238343
C        5.754064217   5.564912560  -0.564075237
C        5.254156901   0.268116377   5.702432782
C        5.541044326   1.080913465  -0.102879921
C       -0.142925234   4.839354395   5.462532618
C       -0.341067574   5.610227217  -0.296059685
C        0.223398741   0.116071631   5.035933947
C       -0.737705803   0.204991530   0.219598712
N        0.406533460   5.508305567   0.989882161
N        0.190660244   6.200010388   5.974491094
N        0.689101636  -0.191341403   0.052137427
N        0.066981420  -0.274347277   6.464408957
N        5.827858994   5.864612487   0.894058047
N        5.040746650   5.524486140   5.964704170
N        5.792664491  -0.377285772   0.079562549
N        6.519263687  -0.514316370   5.807152022
H        7.053205065   5.508607125   6.582183238
H        6.492070597   4.792124556  -0.795583972
H        5.108832804   0.548887588   4.652760237
H        5.319766588   1.262996892  -1.157615583
H        0.731780304   4.195979300   5.608553887
H        0.146024761   6.357971513  -0.930889758
H        0.168207248  -0.791215423   4.422626027
H       -1.319864724  -0.261584473  -0.582746198
H        6.448175466   1.619827343   0.187803130
H        5.346831118   1.165359465   6.324030915
H        5.967664388   6.485153830  -1.117903284
H        6.795245267   5.875654614   4.838238958
H       -0.811837628   1.293833798   0.159624519
H        1.197198105   0.600035965   4.914919295
H       -1.372582791   5.901955744  -0.074458528
H       -0.389753985   4.916098660   4.400360372
H        4.745686811   5.205571328  -0.790487863
H        6.598436072   4.193483179   5.452351697
H        4.699875340   1.378460634   0.528308213
H        4.423783812  -0.354612877   6.054428238
H       -0.329915696   4.630364867  -0.783648725
H       -0.998063978   4.454489295   6.026494535
H       -1.081039698  -0.144100415   1.198582002
H       -0.578746613   0.812057447   4.773624894
H        0.850148799  -0.888399479   6.743430872
H        1.070050346   0.119987080  -0.856146878
H        0.955690018   6.614922972   5.422322321
H        0.440978187   6.420641196   1.479961958
H        7.316609590   0.073632769   5.507949313
H        6.453107022  -0.706393752  -0.645476278
H        4.948752526   6.458459682   6.402032885
H        6.771344715   6.186500539   1.153594816
H        0.542091336   6.138008988   6.945851192
H        1.368091808   5.158653099   0.814782008
H       -0.793331413  -0.833437808   6.583588948
H        0.774413183  -1.215910384   0.079361940
H        4.685333608   4.830471347   6.641716569
H        5.612565206   5.029740528   1.478014901
H        6.476540554  -1.364127633   5.220234353
H        4.929593346  -0.938996545   0.022952110
H        1.297094076   0.179175759   0.805681941
H        0.035122623   0.543396859   7.108836555
H       -0.038359234   4.814748177   1.614763616
H       -0.619618138   6.845368898   5.951276775
H        6.241959978  -0.541126902   0.997954156
H        6.700652549  -0.793501073   6.784140524
H        5.162452946   6.621470164   1.121342438
H        4.450692128   5.491097991   5.117069953
