CRYSTAL
PRIMVEC
11.2820 0 0
0 11.1747 0 
0 0 11.3552
PRIMCOORD
96 1
Pb       3.014984630   2.819958583   3.117636618
Pb       2.858685909   2.845199921   8.805599928
Pb       2.980962156   8.406579800   3.139012642
Pb       2.808145758   8.390296978   8.759489345
Pb       8.619699152   2.776944498   2.812645336
Pb       8.406612030   2.734896990   8.494851859
Pb       8.625342169   8.343578880   2.770679055
Pb       8.397953091   8.353682153   8.453884006
Cl       2.897963774   3.485797027   5.964864911
Cl       2.850596208   2.140903369   0.281782760
Cl       2.962308846   7.702369813   5.966046782
Cl       2.901875781   9.001837686   0.274665686
Cl       8.599589953   2.169585419   5.662747067
Cl       8.756683360   3.075543414  -0.043456552
Cl       8.517860295   8.945031260   5.610307202
Cl       8.546261048   7.872267336  -0.084726466
Cl       3.424977537   0.008428778   3.615912792
Cl       2.692464732   0.026333561   8.325417518
Cl       3.093780823   5.615242442   2.570191652
Cl       2.616710137   5.628963580   9.503230481
Cl       8.094050043  -0.027790164   2.447171634
Cl       8.687350563  -0.052818206   8.964475693
Cl       8.800601300   5.571950554   3.243498624
Cl       8.394437188   5.544871769   8.190950030
Cl       5.810532193   2.748182111   3.049272816
Cl       5.624125946   2.922661277   8.574330389
Cl       5.787006603   8.315356859   2.761920491
Cl       5.604630842   8.082450544   8.730531671
Cl       0.174450783   2.849719757   3.087773389
Cl       0.005078350   2.642697175   8.618802323
Cl       0.167943694   8.313772339   3.071902238
Cl      -0.027927060   8.498004981   8.680600343
C        6.242840526   5.585988829   5.355221683
C        6.005386567   5.215551781   0.248400761
C        5.604525368  -0.109703510   6.479116258
C        6.002952164   0.001117421  -0.423858808
C       -0.233489456   5.582700481   6.058946005
C        0.263915829   5.589094968   0.610448371
C        0.507361269  -0.009576190   5.451912876
C       -0.357270106  -0.000815048   0.547511942
N       -0.550524937   5.536777594  -0.637621728
N        0.546514616   5.573354077   4.790886316
N        0.410246582   0.025487293  -0.729136309
N       -0.357659629  -0.021100584   6.664591217
N        5.214566251   6.476622919   0.171805261
N        5.316825654   5.537862871   6.523661978
N        5.240195998   0.055772732   0.852147502
N        6.262093667   0.025985476   5.153013730
H        6.857833038   4.680262072   5.358568334
H        7.067338961   5.477408913   0.283465403
H        5.001885465  -1.024524029   6.481914618
H        6.619329895   0.902894133  -0.498433808
H       -1.298186888   5.589139401   5.808090690
H        0.850836258   6.513119384   0.611732999
H        1.553092810  -0.013822533   5.773748775
H       -1.424095021  -0.004941640   0.306705022
H        5.292914824  -0.049230226  -1.257736746
H        4.961882552   0.759885407   6.646737123
H        5.795701965   4.610595739  -0.641062670
H        6.880431217   6.472026380   5.446605495
H       -0.097946450   0.893368274   1.126291976
H        0.286820919   0.897655302   4.878301598
H        0.932163819   4.722567590   0.632021159
H        0.032151040   6.482027325   6.626938999
H        5.713945147   4.675804540   1.156226717
H        5.646227819   5.635681249   4.437535556
H        6.648035095  -0.883724435  -0.408277035
H        6.380587621  -0.159200908   7.252656563
H       -0.422279896   5.566857635   1.464502982
H        0.019008884   4.681753471   6.630080340
H       -0.079215119  -0.905678006   1.100753439
H        0.282370908  -0.900974272   4.855835068
H       -0.183801908   0.810931360   7.257958077
H        0.179031329   0.864463495  -1.292934584
H        0.336851730   6.411111140   4.214356185
H        0.061016632   5.550267982  -1.463871425
H        5.546731811   0.084638558   4.407342657
H        4.597374477   0.869519259   0.860693849
H        5.846899445   5.479985913   7.403074708
H        5.449897602   7.017361581  -0.681515955
H        0.328480263   4.729318439   4.222962334
H       -1.204827013   6.342368133  -0.674800524
H       -0.193504887  -0.861148969   7.245892948
H        0.200412297  -0.806245096  -1.308368548
H        4.680394264   4.718546186   6.457571942
H        5.396515219   7.078679024   0.999590273
H        6.889961735  -0.777605227   4.976208881
H        5.895936367   0.116981601   1.649029131
H        1.425075396   0.042606913  -0.557237290
H       -1.354907749  -0.009765939   6.411991218
H       -1.132793292   4.674536582  -0.647058942
H        1.557114607   5.565077407   4.983137453
H        4.645987055  -0.782583037   0.959394481
H        6.861271622   0.872003733   5.120741106
H        4.205496513   6.278555711   0.144447689
H        4.708438726   6.376714402   6.544056417
