CRYSTAL
PRIMVEC
11.2820 0 0
0 11.1747 0 
0 0 11.3552
PRIMCOORD
96 1
Pb       2.991477436   2.789589637   3.029064762
Pb       2.879174246   2.670609614   8.668247515
Pb       2.879024854   8.338028931   2.879310082
Pb       2.680031201   8.299951782   8.581807166
Pb       8.633567728   2.831816953   3.055922738
Pb       8.485277678   2.792039445   8.618464600
Pb       8.533283706   8.460946517   2.878058364
Pb       8.402483691   8.364389478   8.558178423
Cl       2.970319090   3.087002079   5.834430392
Cl       3.108308912   2.392316217   0.146625215
Cl       2.921210225   7.984993997   5.741495238
Cl       2.549165628   8.126853365   0.068970333
Cl       9.020151488   2.313465984   5.834987058
Cl       8.264629942   2.939846714   0.137605266
Cl       8.659525550   8.652997222   5.718231310
Cl       8.432714087   8.181975860   0.034750707
Cl       3.441188681  -0.016713078   3.239711552
Cl       2.321512692  -0.075004534   8.187267977
Cl       2.416538678   5.562754049   2.980548977
Cl       2.978494230   5.483690181   8.876930134
Cl       8.511168076   0.073301986   2.356144716
Cl       8.878734911  -0.010540056   8.930759017
Cl       8.832904342   5.642426667   3.262113022
Cl       7.909820806   5.561861320   8.446715451
Cl       5.776488738   3.157174626   2.819310855
Cl       5.700421298   2.401745753   8.170339947
Cl       5.696055563   8.185713532   2.552853509
Cl       5.556046755   8.618484419   8.183212667
Cl       0.125381400   2.729266447   2.499182031
Cl       0.060536013   3.060137672   9.122162403
Cl       0.049968021   8.573743646   3.057887328
Cl      -0.072944479   8.022773995   8.182980810
C        6.018962621   5.813588703   5.398922719
C        5.370980673   5.586187218  -0.115493642
C        6.185018888   0.004841535   5.226250883
C        5.527411402  -0.439678512  -0.344837117
C       -0.001699350   5.125709500   6.308884857
C       -0.370939678   5.971242807   0.127192104
C        0.597092069   0.033111630   5.223102728
C        0.417692791  -0.461027588  -0.023670698
N        0.892195287   5.180158369   0.097992873
N        0.066876966   6.200766896   5.278397561
N       -0.414525558   0.773282083   0.033919360
N       -0.393214004  -0.236404001   6.302007832
N        6.625763263   5.624248938   0.685119289
N        5.195873797   5.641454929   6.628838830
N        5.680201756   0.406441299   0.874997222
N        5.016838783  -0.066315624   6.150878933
H        7.047239406   6.035938394   5.701469656
H        5.645540687   5.560814653  -1.174924001
H        7.103333190   0.014833352   5.821669935
H        6.299785313  -0.155103152  -1.069068997
H       -0.014428232   4.154803703   5.803512233
H       -0.467225823   6.499631334  -0.827293033
H        1.283450405  -0.817204218   5.161290822
H        1.471270269  -0.163750279  -0.049825273
H        4.528916998  -0.268120943  -0.763686352
H        6.100175989   0.923741111   4.634697128
H        4.781573746   6.483871398   0.103432889
H        5.603899300   6.645527458   4.819331213
H        0.157065901  -1.016257818  -0.931861106
H        1.147219854   0.946294613   5.479073637
H       -0.311750474   6.689674834   0.951824898
H       -0.917629278   5.266717124   6.893987253
H        4.808770856   4.683062565   0.150971909
H        5.977733315   4.887301404   4.815950606
H        5.648624322  -1.488383261  -0.052161484
H        6.160592833  -0.871349888   4.568973923
H       -1.207946671   5.279202431   0.272668792
H        0.874824239   5.208330979   6.960096894
H        0.211863952  -1.068848903   0.864340560
H        0.062583040   0.155331182   4.275301372
H        0.087573390  -0.369733366   7.203567333
H       -0.244957480   1.390686603  -0.782694984
H       -0.753070204   6.164559410   4.643866610
H        1.697580603   5.808165485  -0.053132744
H        5.015866248   0.753959881   6.785991533
H        5.534698120   1.402951705   0.667374722
H        5.210268734   6.508355120   7.195187855
H        7.202079176   6.457306003   0.439094353
H        0.911997978   6.109084364   4.687264154
H        0.858705698   4.483487383  -0.667626275
H       -0.965294142  -1.082314172   6.107533912
H       -0.210484103   1.335171226   0.885960662
H        5.556691605   4.877173716   7.217937506
H        7.193334159   4.768313877   0.515181539
H        5.059788811  -0.920665586   6.741994668
H        6.626140546   0.300860665   1.297337545
H       -1.416560903   0.548075727   0.043314534
H       -1.054404891   0.560045505   6.385871273
H        1.035382529   4.684018091   0.988553483
H        0.090969377   7.126907258   5.725242498
H        4.982462669   0.156738231   1.603290861
H        4.139238164  -0.077225917   5.612115223
H        6.424909060   5.674984988   1.690025261
H        4.215920823   5.424114019   6.405017086
