CRYSTAL
PRIMVEC
11.2820 0 0
0 11.1747 0 
0 0 11.3552
PRIMCOORD
96 1
Pb       2.840106253   2.872507535   3.011567792
Pb       2.892614220   2.841280492   8.752654810
Pb       2.854906418   8.443176089   2.963179095
Pb       2.884127856   8.442047956   8.755554119
Pb       8.567701341   2.730337543   2.914037858
Pb       8.525080384   2.675153868   8.664321267
Pb       8.553313245   8.359376970   2.852904351
Pb       8.492274692   8.350716176   8.621532364
Cl       2.749895867   2.779715214   5.849306925
Cl       3.141695895   2.265861375   0.176743642
Cl       2.671532909   8.336404247   5.859644491
Cl       2.744251503   9.194546196   0.178299098
Cl       8.391968200   2.494176990   5.786060381
Cl       8.347511609   3.304383613   0.101091018
Cl       8.518795864   8.223354865   5.759720699
Cl       8.529150058   7.617514915   0.078296126
Cl       3.317811462   0.062818176   3.449918500
Cl       3.218947466   0.058202407   8.202582119
Cl       2.293417459   5.660591833   3.163997443
Cl       2.718553105   5.637110134   9.247985066
Cl       8.141548012  -0.026649072   2.521907239
Cl       8.082189149  -0.055836901   8.495740085
Cl       8.977956135   5.546564136   3.358062981
Cl       8.562237508   5.514185707   8.286251579
Cl       5.708298033   2.926946008   3.297537158
Cl       5.715321051   3.166237134   8.349747441
Cl       5.711165003   8.282276189   2.722834774
Cl       5.673617513   8.041139883   8.670050697
Cl       0.085928232   2.029712641   3.033750020
Cl       0.081117430   2.567822808   9.259495445
Cl       0.076601367   9.054013601   3.037010879
Cl       0.049403419   8.180190650   8.610937045
C        5.317696640   5.963062100   5.662431468
C        5.252648193   5.351231268   0.482880520
C        5.889241187  -0.671080265   5.641997335
C        6.014812681  -0.011144391  -0.288138083
C        0.107952341   5.274114933   6.145888457
C        0.325950503   5.589186503   0.548134545
C       -0.218897952  -0.015624016   6.463343621
C       -0.803024802  -0.260062222  -0.207673623
N       -0.384891462   5.528136545  -0.758981055
N        0.008108433   6.576770726   5.432424169
N        0.454733423   0.283089005   0.373140106
N        0.993275870  -0.004146856   5.598267452
N        6.035281147   5.503230733  -0.774284852
N        6.640825964   5.276970236   5.665473296
N        5.324282784  -0.037818639   1.030638633
N        5.551064308   0.742032232   5.970999569
H        4.801458715   5.733986209   4.723152322
H        4.191524039   5.281158814   0.221036465
H        6.457448640  -0.682968361   4.705988576
H        7.091967248  -0.072468429  -0.111023693
H        1.029621704   4.775785094   5.827605186
H       -0.093650405   4.826011384   1.212754997
H       -0.836390444   0.853880405   6.212764396
H       -0.612608473  -0.549569389  -1.246699732
H        5.759917907   0.924785828  -0.797773872
H        4.955963891  -1.231887169   5.529890025
H        5.439347293   6.225443626   1.117133562
H        5.484757008   7.040303109   5.757406018
H       -1.573297311   0.517545080  -0.163777605
H        0.101084661   0.028164443   7.509548041
H        0.174432956   6.583446124   0.983586387
H       -0.766948034   4.666110102   5.887631746
H        5.583176987   4.438054633   0.990052242
H        4.735039279   5.595042642   6.514723022
H        5.673640573  -0.866799263  -0.881675508
H        6.490648876  -1.076089500   6.459855871
H        1.389827857   5.408709211   0.370356990
H        0.129420998   5.474124454   7.222034773
H       -1.111058147  -1.132370093   0.378237462
H       -0.781471995  -0.936812335   6.272032339
H        1.568512687   0.847736304   5.747972232
H        0.798898560   1.079673480  -0.184331256
H        0.030428980   6.429196163   4.415771801
H       -1.391945161   5.703637481  -0.629721701
H        4.997910384   1.172061938   5.215833674
H        5.635455455   0.730087429   1.640984854
H        7.261932662   5.596255072   4.898232568
H        5.779670948   6.362033505  -1.302616271
H        0.810462237   7.192836253   5.669418760
H       -0.262470178   4.599299790  -1.205806310
H        0.736517150  -0.024881378   4.601589385
H        1.203473837  -0.439695946   0.389279639
H        6.542129762   4.259090412   5.550904017
H        5.896898400   4.700531258  -1.417762932
H        6.408395004   1.309808989   6.095053093
H        5.509315047  -0.920820240   1.544073040
H        0.308695626   0.637647800   1.340085805
H        1.598717304  -0.826787653   5.775447794
H       -0.035364357   6.252897678  -1.411842853
H       -0.876779978   7.077041939   5.652945627
H        4.306543900   0.052813314   0.913453545
H        4.980820692   0.782852869   6.832707687
H        7.041275812   5.563265861  -0.569604585
H        7.158780425   5.432687966   6.552534100
