CRYSTAL
PRIMVEC
11.2820 0 0
0 11.1747 0 
0 0 11.3552
PRIMCOORD
96 1
Pb       2.887787397   2.816216075   3.240584256
Pb       2.903342222   2.628584891   8.856489976
Pb       2.799595014   8.433052507   2.898394514
Pb       2.959578424   8.310232282   8.474988774
Pb       8.510359270   2.911549630   3.080754479
Pb       8.515984154   2.728779651   8.842537586
Pb       8.502802810   8.440301577   2.710354317
Pb       8.520907749   8.252123890   8.416671722
Cl       2.437364718   2.310948105   6.061952885
Cl       3.039223674   2.882383649   0.375933586
Cl       3.088976009   8.458556672   5.705933918
Cl       2.906591526   8.084122009   0.036580656
Cl       8.859320318   2.500659973   5.952679807
Cl       8.590822860   2.819509744   0.286401477
Cl       8.306276147   8.480071052   5.586075047
Cl       8.624091313   8.166807799  -0.109527027
Cl       2.425397282   0.083927295   2.555251329
Cl       3.370232855  -0.130374888   9.174156555
Cl       3.432622111   5.648791531   3.175498138
Cl       2.346444846   5.477015165   8.519960434
Cl       8.882910048   0.089638256   2.750461465
Cl       8.347320826  -0.101698565   8.443071391
Cl       8.036311880   5.688772544   3.289570736
Cl       9.287427304   5.463696144   8.425148955
Cl       5.696041097   2.178381645   3.152053829
Cl       5.704200845   3.156249141   8.875267835
Cl       5.635730474   9.034742666   2.893323739
Cl       5.723574637   7.519467278   8.466147582
Cl       0.069075442   3.185439144   3.173197693
Cl       0.076953163   2.302931068   9.086970233
Cl       0.006716237   8.073453031   2.630230813
Cl       0.103261448   8.703008425   8.325337950
C        5.651397329   4.974050703   5.991568373
C        6.000275442   5.564258836   0.464460676
C        5.490843240   0.122154626   6.239188646
C        6.282110278   0.003413537  -0.219903187
C        0.127726286   6.054208534   5.356066714
C        0.104336709   5.275807889   0.346056252
C        0.091424311  -0.457451012   5.239403055
C       -0.005671238  -0.478854547  -0.200562571
N        0.088436767   6.513072018  -0.484493920
N        0.151940019   4.802920696   6.168474890
N       -0.027881182   0.765819852   0.618987423
N       -0.048831375   0.247613722   6.544922949
N        4.758307496   5.499400234  -0.355140782
N        5.689805597   6.329613894   5.379143099
N        5.059217349   0.051577096   0.629794559
N        6.727124160   0.073321588   5.409589649
H        5.657594091   4.228962534   5.186400045
H        6.580078640   4.649760773   0.294975699
H        4.809381338  -0.665848858   5.898803821
H        6.357506115  -0.994223146  -0.665208580
H        0.985207118   6.043972780   4.674825021
H       -0.790532430   4.687434665   0.115905889
H        1.049370396  -0.987691061   5.239788868
H        0.904035088  -0.478288620  -0.810750905
H        7.155055753   0.208155822   0.410061011
H        5.019996576   1.103174304   6.111556362
H        5.714273609   5.643890068   1.518056974
H        4.741804519   4.886934911   6.595786998
H       -0.890531483  -0.491131718  -0.846114168
H        0.064166434   0.284769956   4.435392561
H        0.107957169   5.567828860   1.401019460
H        0.186442390   6.911427496   6.037212849
H        6.581228719   6.440454315   0.155999838
H        6.530240986   4.852784031   6.632850100
H        6.187159062   0.759063338  -1.006394975
H        5.767482545  -0.032159095   7.287250310
H        1.005770790   4.701358880   0.105762881
H       -0.805472629   6.079402650   4.782981142
H       -0.014237282  -1.336718604   0.481754368
H       -0.735749951  -1.166718986   5.134143794
H        0.730941868   0.916479928   6.671725897
H       -0.044690991   1.592209791   0.001274108
H        1.008146170   4.755040863   6.745965891
H       -0.761847447   7.081021818  -0.293488670
H        6.506288406   0.255540034   4.419521009
H        5.102204389  -0.677759402   1.371465114
H        4.873268985   6.457433180   4.756186939
H        4.193103375   4.665094036  -0.098589235
H        0.107632203   3.974616778   5.556727801
H        0.089161128   6.284987694  -1.487468408
H       -0.049074671  -0.433038184   7.326636821
H        0.807135680   0.798784247   1.234283998
H        6.544738462   6.432552270   4.802301275
H        4.982271629   5.431755035  -1.356664809
H        7.199744425  -0.851678998   5.477405995
H        4.218222410  -0.093130615   0.049106897
H       -0.864221386   0.781000741   1.229816093
H       -0.925221269   0.793950908   6.585080620
H        0.922841459   7.096986058  -0.288979507
H       -0.650797018   4.792156740   6.828978524
H        4.967172882   0.957945320   1.111122289
H        7.409561512   0.794967763   5.708910168
H        4.168468316   6.343224644  -0.212800038
H        5.679269763   7.053453785   6.114382532
