CRYSTAL
PRIMVEC
11.2820 0 0
0 11.1747 0 
0 0 11.3552
PRIMCOORD
96 1
Pb       2.948456380   2.691753223   2.675831143
Pb       2.900795192   2.792426946   8.332572621
Pb       2.831543179   8.256159144   3.036891704
Pb       2.857350079   8.435453808   8.737349703
Pb       8.545412294   2.813602116   2.665483805
Pb       8.634084208   2.925314168   8.357264093
Pb       8.408754416   8.357976524   3.071130319
Pb       8.510811294   8.531024491   8.761986431
Cl       2.497952029   2.172290037   5.409446858
Cl       3.233478706   3.489605076  -0.282822047
Cl       2.619021781   8.643579789   5.878399628
Cl       2.865796081   7.718130978   0.170304255
Cl       8.972123237   2.214927034   5.397758952
Cl       8.174196019   3.503401139  -0.298963480
Cl       8.406865267   9.142795528   5.883073507
Cl       8.389221510   7.995517093   0.205995882
Cl       3.150481035  -0.124191095   2.352195857
Cl       2.739668531   0.059075002   9.272732784
Cl       2.992548297   5.455168026   3.516017884
Cl       2.629998429   5.609016083   8.116566608
Cl       8.166885363  -0.005528954   2.461952219
Cl       8.651181051   0.158438826   9.231036977
Cl       8.454417153   5.546635318   3.630876284
Cl       8.825116138   5.736101268   8.022006876
Cl       5.753689657   2.697317649   3.348111542
Cl       5.777268184   2.973074026   7.713985739
Cl       5.612236132   8.327845978   3.066614301
Cl       5.684054062   8.456185516   9.145109498
Cl       0.097082605   2.288257595   2.309036502
Cl       0.122797930   2.863547419   9.039652789
Cl      -0.040390134   8.367690599   3.440040879
Cl       0.044438445   8.276723894   8.850466814
C        5.672803607   6.465642620   6.216692061
C        5.734431363   5.588097961   0.925402782
C        5.157689332  -0.442633391   5.908378050
C        5.677550692   0.750005849   0.002150175
C        0.116966117   4.886409178   5.708539553
C       -0.147212629   5.678742487   0.682380345
C        0.099839913  -0.025291648   6.570515694
C       -0.003450960  -0.880262761   0.572553197
N        0.516156964   5.600872828  -0.649571290
N        0.059641810   6.341458295   6.028361727
N        0.051188584   0.335474198  -0.286978311
N        0.068177559   0.083160659   5.084407714
N        5.702989281   5.523740683  -0.563837200
N        5.692593896   5.283889132   5.308196678
N        5.705129676  -0.679036490   0.427458588
N        6.322562952   0.445017082   5.637172290
H        5.722978765   7.374038495   5.608331209
H        5.726734587   4.562300524   1.308170325
H        5.150622282  -1.240072762   5.159601459
H        6.533220162   0.937831866  -0.654145331
H        0.981306825   4.701972162   5.064097630
H       -1.232266758   5.656487410   0.533919976
H       -0.789799226  -0.571567290   6.896749410
H        0.885250976  -0.883129943   1.210424751
H        5.751302273   1.368276646   0.903807097
H        4.238557292   0.148984259   5.840216684
H        4.849185694   6.129751037   1.267898867
H        6.540995381   6.400913570   6.880019481
H       -0.022882112  -1.765971975  -0.069476348
H        0.096857300   0.988270311   6.984370279
H        0.149584991   6.616729269   1.164509430
H       -0.816091606   4.604491385   5.212168215
H        6.648825523   6.104797309   1.229303457
H        4.741759969   6.439456327   6.790789730
H        4.731834639   0.941395128  -0.513520802
H        5.272360260  -0.871255152   6.911090232
H        0.174843776   4.819523646   1.282007551
H        0.225762889   4.337620122   6.650217928
H       -0.911938562  -0.826766895   1.179954336
H        1.011386623  -0.554910166   6.860694081
H       -0.771946652   0.619918275   4.803351297
H        0.899259364   0.334107725  -0.887098015
H       -0.059139427   6.926713677   5.179956492
H        0.250038629   6.401008312  -1.253699462
H        6.250448914   0.901616490   4.711091439
H        6.567594685  -0.864494822   0.965775453
H        6.546766739   5.284462132   4.715407889
H        4.849653825   5.011111158  -0.852761589
H        0.927751852   6.647545975   6.492274523
H        0.285024233   4.721396822  -1.152038209
H        0.056344732  -0.845908049   4.625555743
H        0.074254219   1.179906952   0.312646051
H        4.863052830   5.278909371   4.681286261
H        6.532730301   4.991438644  -0.883547501
H        7.204300109  -0.099098764   5.670284673
H        5.668693229  -1.329994533  -0.377119715
H       -0.779792700   0.391594539  -0.906952194
H        0.896023341   0.618315457   4.768917096
H        1.541092654   5.633594257  -0.551108412
H       -0.728935062   6.517403200   6.674289913
H        4.901468323  -0.865031586   1.053797376
H        6.367620548   1.215170173   6.326285706
H        5.704855910   6.465963507  -0.992127479
H        5.686668282   4.408118150   5.857970833
