CRYSTAL
PRIMVEC
11.2820 0 0
0 11.1747 0 
0 0 11.3552
PRIMCOORD
96 1
Pb       2.815984237   2.731804521   3.024824362
Pb       2.750515092   2.640112119   8.817473860
Pb       3.008313541   8.437920778   2.932393592
Pb       2.880460213   8.209959491   8.538001329
Pb       8.409296795   3.008823166   2.978002108
Pb       8.416000697   2.773733208   8.817991273
Pb       8.632361516   8.625456145   2.783010701
Pb       8.540887875   8.390622756   8.474240873
Cl       3.398478048   2.593171305   5.948692159
Cl       2.355145950   3.229628516   0.229988910
Cl       3.227763696   8.859924077   5.792609127
Cl       3.025350773   7.925743782   0.068013452
Cl       8.018724665   2.844815638   5.929122754
Cl       9.128025991   3.100193775   0.232217804
Cl       8.628394616   8.780674514   5.662560313
Cl       8.692780885   8.743032393  -0.063025880
Cl       2.998467500  -0.010890409   2.172710818
Cl       3.350712210  -0.184042742   9.179433969
Cl       2.768188194   5.576524813   3.108989155
Cl       2.469795289   5.395174560   8.146800088
Cl       8.832756691   0.237185419   2.924229005
Cl       7.690770812  -0.037704998   8.526561413
Cl       8.805777595   5.801486393   3.108269290
Cl       8.823681924   5.527565351   8.269471929
Cl       5.563284821   3.198354638   2.579169622
Cl       5.527925995   3.288470634   9.124875778
Cl       5.797068503   8.454169363   2.557236749
Cl       5.691319886   7.736541411   8.560994737
Cl      -0.046305606   2.960639511   3.665560374
Cl      -0.101854310   2.317827819   8.173220992
Cl       0.182967617   8.455450257   2.555134305
Cl       0.065597899   9.041622073   8.459752018
C        5.771752799   6.040168278   5.272127136
C        6.446372723   5.739397656   0.229477249
C        5.869218888   0.003045524   4.938673577
C        6.128627942   0.455511841   0.330974674
C        0.148586371   6.412297206   5.654445817
C       -0.015518257   5.999884864  -0.162644957
C        0.477065421  -0.130255242   5.356376320
C       -0.149725624   0.417525976   0.135090542
N        0.085206070   5.364565096   1.180865405
N       -0.062534537   5.029147439   6.166611791
N        0.653640175  -0.827177908  -0.026930521
N       -0.871334108   0.309244131   5.811182442
N        5.012047251   5.335941699   0.197527435
N        5.701632542   5.097936537   6.428533325
N        5.718026166  -0.899381549  -0.134429342
N        5.315191239   0.067063551   6.319981965
H        6.750130973   6.533927379   5.287096773
H        6.635445497   6.287345554   1.156819330
H        6.517165643   0.870853487   4.785248936
H        6.113952176   1.135393344  -0.527839976
H        1.113249351   6.444834256   5.136846994
H       -0.063430025   7.084639741  -0.028846418
H        1.149345497   0.735227570   5.380409060
H        0.060491927   1.088926291  -0.703862490
H        7.136305755   0.388400254   0.756346008
H        5.035767584   0.012320302   4.226116049
H        6.648036632   6.373898156  -0.639411816
H        4.973692782   6.782849783   5.379501689
H        0.123490460   0.893284887   1.082581686
H        0.390847460  -0.524191427   4.337243080
H       -0.926576168   5.633962426  -0.649363870
H        0.144316446   7.103246397   6.505145949
H        7.060747768   4.833201774   0.192250475
H        5.645226632   5.466858111   4.346971137
H        5.415404693   0.790552660   1.090091987
H        6.444005780  -0.921805689   4.835489821
H        0.868051078   5.719288726  -0.746983370
H       -0.663827047   6.658724189   4.964572487
H       -1.208467349   0.140457776   0.149350069
H        0.834428988  -0.907345659   6.038747759
H       -1.280754824   0.971294544   5.138979513
H        1.661714902  -0.624363919  -0.017908109
H        0.706890279   4.779773166   6.811117813
H       -0.720755259   5.616219591   1.788175679
H        4.752477504   0.933547398   6.427023189
H        6.429015171  -1.289191563  -0.766745358
H        5.771137259   5.613744850   7.320090988
H        4.373729239   6.154752003   0.172489745
H       -0.092771298   4.335273142   5.392777630
H        0.954849504   5.628551825   1.679295584
H       -0.797388344   0.793779492   6.725048042
H        0.425572508  -1.298557073  -0.926498428
H        6.475372406   4.404368022   6.385168489
H        4.789937888   4.762632643   1.028374526
H        6.065848878   0.050198860   7.039085816
H        4.822887020  -0.845609911  -0.654665794
H        0.468311065  -1.488176644   0.753953241
H       -1.518157046  -0.501905601   5.881360290
H        0.088844370   4.340782995   1.087374744
H       -0.943386743   4.974534507   6.711348330
H        5.618061877  -1.551837428   0.667435654
H        4.677211381  -0.734520132   6.472495862
H        4.842688058   4.742794623  -0.633685112
H        4.819291486   4.561343132   6.435799982
