CRYSTAL
PRIMVEC
11.2820 0 0
0 11.1747 0 
0 0 11.3552
PRIMCOORD
96 1
Pb       2.788944127   2.530547037   3.105041375
Pb       2.872105990   2.665190992   8.898914451
Pb       2.976318559   8.092868786   2.737475154
Pb       2.841798207   8.273628366   8.420244370
Pb       8.458391457   3.034979576   3.137667690
Pb       8.540325818   2.903807078   8.853656234
Pb       8.659307383   8.678215503   2.815717454
Pb       8.546799327   8.497933595   8.394325378
Cl       2.538594553   2.368601245   6.022595805
Cl       2.988408213   2.865354350   0.334785089
Cl       3.449900150   8.359628717   5.541462471
Cl       2.302748237   8.005156287  -0.163313667
Cl       8.922567872   2.945960010   6.004555307
Cl       8.415131982   3.354238689   0.291389833
Cl       8.115169712   8.873966592   5.601330896
Cl       8.853716038   8.629702917  -0.087642063
Cl       3.215090276  -0.291091731   2.699306126
Cl       3.233521287  -0.160300348   9.213541974
Cl       2.697269034   5.320909151   3.556706202
Cl       2.349523449   5.449078308   8.210791541
Cl       8.314190373   0.283312199   2.896554760
Cl       8.070379491   0.067054732   8.870481555
Cl       8.623437413   5.872636805   2.810491675
Cl       9.262425609   5.697629524   8.794178346
Cl       5.595251239   2.850574347   3.752994105
Cl       5.699768682   3.437976923   8.600543773
Cl       5.866580434   8.363478538   2.196580250
Cl       5.714318483   7.912361127   8.924332125
Cl      -0.033854914   2.802317921   3.169003154
Cl       0.054469037   2.097354076   9.023317735
Cl       0.195770055   8.390503871   2.729142479
Cl       0.060515597   9.128162354   8.108075538
C        6.193585469   5.949304719   5.675757745
C        5.264520195   5.346037354   0.423813147
C        5.400617654   0.004647868   6.403263353
C        5.870149857   0.767788035   0.228805834
C       -0.117452641   6.335944203   5.653705391
C        0.521131206   4.976306722   0.297028461
C        0.103216855  -0.390514921   5.021502197
C        0.115922853   0.395299011   0.774116273
N       -0.510840112   6.051294417   0.299489799
N        0.278423962   4.912565928   5.842830932
N        0.176498007  -0.554439061  -0.373805454
N       -0.065970242   0.549205685   6.164936003
N        6.544620545   6.010982606   0.051254307
N        4.968201260   5.153079934   5.967716407
N        5.782293819  -0.636123048  -0.261967214
N        5.686544705  -0.207389083   4.955813836
H        6.240280621   6.784555411   6.381175323
H        5.098757217   4.512748585  -0.264097826
H        4.423887273   0.488820183   6.498696042
H        5.798571430   1.438849489  -0.634834757
H       -0.812430243   6.399038153   4.809577101
H        1.057385088   5.002630603   1.251295703
H        1.075440018  -0.887499345   5.116515493
H       -0.826115738   0.951214040   0.718140886
H        6.829299038   0.901787527   0.737236476
H        6.187430032   0.636765479   6.828440683
H        4.451114051   6.076366350   0.334633078
H        6.135249217   6.328872071   4.649603468
H        0.963861260   1.083650989   0.694893896
H        0.051898204   0.181483138   4.089729565
H        1.210758527   5.167773258  -0.531315889
H        0.786005042   6.918579610   5.440767734
H        5.341461305   4.977716248   1.453484432
H        7.065725155   5.294118756   5.790067451
H        5.036481698   0.946948646   0.914476282
H        5.394770814  -0.971077536   6.900313335
H        0.019417668   4.011852707   0.169497684
H       -0.586342389   6.686312981   6.578372384
H        0.168968905  -0.180670973   1.703376200
H       -0.700492274  -1.131558350   5.066120740
H        0.745493008   1.200431524   6.224536309
H        0.198075670  -0.029981330  -1.263861161
H        0.775323850   4.562018424   5.010355993
H       -0.068340172   6.973227676   0.417490341
H        5.781330257   0.698434391   4.459114190
H        6.574901349  -0.832311731  -0.893810439
H        4.123810356   5.737642377   5.904648581
H        6.460739657   6.453888085  -0.882975215
H       -0.545273423   4.302378666   6.000033746
H       -1.185728496   5.930332442   1.077994501
H       -0.115571943   0.018164845   7.050750643
H       -0.651911493  -1.178621494  -0.384470978
H        5.025705371   4.726622952   6.913661794
H        7.315517850   5.317521423   0.052007006
H        4.923670367  -0.729971549   4.498488707
H        4.910912125  -0.756924637  -0.812593488
H        1.013351720  -1.161966001  -0.334432504
H       -0.915414675   1.133587735   6.075685702
H       -1.042281765   6.050593905  -0.593537363
H        0.926980817   4.837784516   6.651382042
H        5.795266241  -1.320948825   0.517646021
H        6.563820067  -0.743491854   4.846127875
H        6.760311761   6.760893988   0.727975207
H        4.878888880   4.380489914   5.282439903
