CRYSTAL
PRIMVEC
11.2820 0 0
0 11.1747 0 
0 0 11.3552
PRIMCOORD
96 1
Pb       2.726345700   2.842022507   2.931061964
Pb       3.003982864   2.709346400   8.628788251
Pb       2.804638927   8.437537807   3.201094303
Pb       2.976169023   8.371017567   8.854695506
Pb       8.535528685   2.894772513   2.780777444
Pb       8.639793642   2.647345456   8.414083410
Pb       8.421344687   8.450399356   3.055177937
Pb       8.618447147   8.309879587   8.764688362
Cl       2.835761829   2.858509233   5.767507965
Cl       3.055256857   2.402357308   0.124727963
Cl       3.054275648   7.668309896   6.058007521
Cl       3.155705754   8.677115496   0.404840476
Cl       8.777079811   2.246489784   5.580235819
Cl       8.889300112   2.853242258  -0.056676232
Cl       8.483952196   8.117241248   5.914367798
Cl       8.531639523   8.416066418   0.253550076
Cl       3.294106759   0.054875668   3.525253304
Cl       3.222236264  -0.032769902   8.202553285
Cl       2.264931344   5.646613892   2.898811843
Cl       3.019001473   5.548006167   9.485836737
Cl       7.717355659   0.087119293   2.760608415
Cl       8.752976419  -0.092237947   8.829928412
Cl       9.058759257   5.665088331   3.146919257
Cl       8.572345477   5.478184012   8.548870661
Cl       5.611722207   3.093751389   2.689610371
Cl       5.802252166   2.964767641   8.083709179
Cl       5.602790109   7.884502639   3.020870801
Cl       5.774139616   8.226907486   8.737899016
Cl      -0.016676922   2.104021887   2.698042932
Cl       0.184037652   2.591350140   8.421874492
Cl      -0.042719875   9.203391075   3.220571441
Cl       0.150165656   7.942721755   8.532714904
C        5.990134220   5.043236962   5.329677045
C        6.243464746   5.486386745  -0.089314804
C        6.141567165  -0.450307818   6.001411705
C        6.027877384   0.111019563  -0.457167937
C       -0.023256374   5.206905571   6.029902044
C       -0.154735351   6.036372853   0.220974164
C        0.234696734  -0.562373217   6.454283401
C        0.287492276  -0.226423525  -0.249878532
N       -0.044666296   5.144634629  -0.965660849
N        0.050466737   6.553614515   5.395899718
N       -1.000162336  -0.063305474   0.480980652
N        0.368933722   0.587478039   5.514912716
N        4.998450278   5.599221439   0.725289348
N        5.929201938   6.043965493   6.432470635
N        5.155260021   0.042994106   0.749136765
N        5.675242072   0.884268087   5.526195812
H        5.993905071   5.582245575   4.377924875
H        7.106074891   5.486799226   0.586787022
H        6.088192817  -1.150873717   5.160406785
H        6.628399977   1.026334508  -0.400219485
H       -0.903308541   4.684076729   5.639397981
H        0.021014698   7.064738415  -0.111135682
H       -0.647079216  -1.144119633   6.164647705
H        0.920914937   0.643881226  -0.042255097
H        5.395176921   0.117527028  -1.352430484
H        5.489843907  -0.778311167   6.817924330
H        6.292488059   6.341202104  -0.771753552
H        5.112370158   4.392989643   5.401580532
H        0.069063343  -0.292599767  -1.320989157
H        0.118074896  -0.168677526   7.467927811
H        0.596345609   5.737898361   0.959749329
H       -0.114917155   5.346807865   7.110586626
H        6.206460656   4.550499855  -0.657816741
H        6.908613411   4.456365201   5.443794089
H        6.682540577  -0.766172776  -0.464877075
H        7.174696255  -0.353341109   6.351568758
H       -1.159540374   5.941549291   0.642522151
H        0.892957358   4.657139101   5.789826429
H        0.777716051  -1.139768309   0.105274361
H        1.139113293  -1.175603806   6.385679939
H       -0.480525026   1.183945806   5.531146265
H       -1.489702950   0.805060998   0.191736806
H       -0.788686588   7.118333031   5.626427673
H        0.902644028   5.219330386  -1.388278429
H        4.730013234   0.811201964   5.107769815
H        4.501805867   0.848690241   0.764593696
H        5.049156380   6.592041033   6.393221629
H        5.007638589   6.460017987   1.301317092
H        0.098436489   6.468623183   4.372133058
H       -0.751367781   5.394127520  -1.683094290
H        0.488623494   0.255729179   4.546698504
H       -0.828779726   0.005135356   1.493489387
H        6.718345626   6.713265190   6.371928018
H        4.937915228   4.793057284   1.374492670
H        6.306132563   1.239228069   4.795265706
H        5.735154320   0.060238788   1.606394939
H       -1.633151624  -0.871461606   0.318137255
H        1.180475434   1.189401404   5.746354989
H       -0.223782998   4.162358947  -0.720038780
H        0.900118108   7.052000409   5.720923258
H        4.577409910  -0.820094407   0.743840435
H        5.651415682   1.574482690   6.301858630
H        4.167679799   5.610489434   0.105717699
H        5.985388440   5.584008326   7.350772446
