CRYSTAL
PRIMVEC
11.2820 0 0
0 11.1747 0 
0 0 11.3552
PRIMCOORD
96 1
Pb       2.679052669   3.043450241   2.873076543
Pb       2.745199122   2.956623528   8.568361227
Pb       3.071674165   8.567491406   2.988050843
Pb       2.989036677   8.435192557   8.702804704
Pb       8.420748217   2.706596343   2.952445981
Pb       8.297711111   2.724967982   8.611352058
Pb       8.714694253   8.323423746   3.019076352
Pb       8.622492063   8.210186511   8.598902421
Cl       2.136708398   2.957217791   5.734620464
Cl       2.998113013   2.981081074   0.032634207
Cl       3.247704312   8.794740514   5.877316769
Cl       2.677771243   8.656346418   0.172646206
Cl       8.733316182   2.598633814   5.792855527
Cl       7.886890004   2.752085912   0.094670205
Cl       8.234944524   8.559289029   5.809592498
Cl       8.755029287   7.962880265   0.119694626
Cl       2.709002854   0.232325911   2.848582862
Cl       2.408494674   0.084476892   8.650283370
Cl       3.211559079   5.791173622   3.429448826
Cl       3.282762965   5.673629619   8.077539009
Cl       8.402341035  -0.073042465   2.723183183
Cl       8.727178425  -0.104649285   8.701359400
Cl       8.594064831   5.518340338   2.927745899
Cl       7.925380026   5.486256612   8.795710728
Cl       5.564015409   3.074377476   2.983826322
Cl       5.508309661   2.278591822   7.997460416
Cl       5.897738937   8.414607715   2.444053907
Cl       5.831248254   8.843103255   8.919109892
Cl      -0.111430263   2.880422656   2.174807636
Cl      -0.128324498   3.050437542   9.036726068
Cl       0.272286317   8.134829911   3.293411923
Cl       0.187197593   8.038172624   8.228349341
C        6.113405794   5.916941102   5.714828158
C        5.168431785   5.927734912  -0.208758739
C        5.658122929   0.356294988   5.052517797
C        5.234603970   0.382431474   0.123103098
C       -0.498395468   5.353163679   5.818946492
C        0.542374831   5.947655317   0.113849052
C       -0.083574599  -0.327080521   5.441865283
C       -0.232434399  -0.464139598   0.248834493
N       -0.745248865   5.197469754   0.036481325
N        0.778853243   6.113974362   5.739048225
N        0.955041882   0.429503611   0.160988193
N       -0.088395961   0.520008310   6.669556604
N        6.374773590   5.634266542   0.615690871
N        5.318857799   4.655603631   5.725586477
N        6.431452688  -0.508635521   0.121426963
N        5.794444492  -0.518662631   6.249206009
H        7.169852649   5.662308605   5.585297936
H        5.473281705   5.969578083  -1.259371559
H        5.748646114  -0.261671348   4.152221417
H        5.277543419   1.028907676  -0.759821291
H       -0.587367124   4.714886236   4.934768297
H        0.603230856   6.621772204  -0.747523557
H        0.806917188  -0.085660797   4.850100614
H       -0.874106199  -0.283699221  -0.620826858
H        5.246861068   0.992474222   1.032418386
H        6.456098915   1.104810093   5.079710468
H        4.758603730   6.892040074   0.110854586
H        5.957635982   6.436356275   6.665932255
H       -0.773819548  -0.232346187   1.172191877
H       -0.994831007  -0.118025605   4.869083796
H        1.365347548   5.223011240   0.097740527
H       -1.327468870   6.070397775   5.846190655
H        4.437918664   5.126860826  -0.052846434
H        5.765537870   6.533042266   4.877751597
H        4.340987350  -0.251601120   0.096548870
H        4.676529503   0.840951260   5.084311207
H        0.554664012   6.527315237   1.043787901
H       -0.487908926   4.740862650   6.727377358
H        0.117395397  -1.501357620   0.258373369
H       -0.060038434  -1.377102098   5.749705445
H       -0.104101148   1.519680043   6.431902906
H        0.682407810   1.420700647   0.194056278
H        0.793777530   6.712820360   4.889067757
H       -0.773168851   4.614228627  -0.819808107
H        6.667006105  -1.079379475   6.216968887
H        7.295604086   0.042573078   0.191438746
H        5.590787790   4.018707260   6.495674822
H        7.093965648   6.370332226   0.495532067
H        1.584046418   5.473887178   5.708294614
H       -1.538000011   5.860612590   0.039335546
H        0.754786127   0.345096494   7.252486225
H        1.484445180   0.271156959  -0.717513478
H        5.422259722   4.140238585   4.823556071
H        6.804210954   4.722250257   0.362593710
H        4.998173435  -1.189615607   6.289603089
H        6.447786811  -1.078041919  -0.748016369
H        1.597559411   0.274267100   0.965055132
H       -0.919587416   0.322466668   7.261298583
H       -0.829415952   4.551570518   0.843056371
H        0.869405018   6.734745944   6.565298655
H        6.402714383  -1.166992447   0.924426734
H        5.791143924   0.048386831   7.109779925
H        6.149721488   5.595183532   1.616997459
H        4.319184614   4.861680407   5.850474550
