CRYSTAL
PRIMVEC
11.2820 0 0
0 11.1747 0 
0 0 11.3552
PRIMCOORD
96 1
Pb       2.881270884   2.958881326   2.962068033
Pb       2.919199210   2.691812232   8.586673304
Pb       2.781270658   8.610470427   2.782564879
Pb       2.786058622   8.249752532   8.566620003
Pb       8.521595159   2.870399014   3.111652334
Pb       8.667516695   2.579278349   8.679728665
Pb       8.373911420   8.447261593   2.819742332
Pb       8.493410957   8.106127332   8.545363060
Cl       3.041085500   3.242392592   5.763975924
Cl       2.938299347   2.600715896   0.101370627
Cl       2.313138464   8.218849768   5.628377627
Cl       3.332622832   8.763077549  -0.051855778
Cl       8.765821972   3.234829397   5.929185091
Cl       8.608424597   2.340262446   0.261915826
Cl       8.879899476   7.864097078   5.583817176
Cl       8.096872923   8.805440862  -0.097374835
Cl       2.123952981   0.175707124   3.287512575
Cl       3.260031782  -0.168766989   8.202336146
Cl       3.023870722   5.787550424   2.884986207
Cl       3.298345456   5.444552097   8.714817132
Cl       9.160666290   0.047116486   3.267306212
Cl       8.376353162  -0.260003798   7.930533934
Cl       8.220997052   5.644172412   2.385284804
Cl       8.639402046   5.354143388   9.464789927
Cl       5.690833451   2.882400116   2.763282456
Cl       5.786898789   2.493502884   8.876382890
Cl       5.557265552   8.648764142   3.638076386
Cl       5.633239946   8.153284045   8.059875162
Cl       0.024274181   3.467247185   2.859639075
Cl       0.142416949   2.631786487   9.081879296
Cl      -0.072330232   8.095374814   2.520394304
Cl      -0.032392210   8.634254212   8.690482697
C        6.104718170   5.187958046   5.780846788
C        5.397882171   5.963759203   0.097106313
C        5.730016758   0.698551149   5.235255475
C        5.656605442   0.098264717   0.693010890
C        0.233336969   5.492651945   6.559390560
C        0.820463764   5.730327808  -0.304306193
C        0.218854638   0.505018701   6.336955205
C        0.100801893  -0.326011728  -0.134110005
N       -0.434641336   5.630279995   0.490762984
N        0.066002240   5.871239361   5.126418798
N        0.175016074   0.903080890   0.705706380
N       -0.170006786  -0.784478039   5.700041986
N        6.047715335   4.622980554   0.041565775
N        4.857261956   6.003094665   5.746479874
N        5.733633014  -0.307265670  -0.739400633
N        5.712321126  -0.474001430   6.149563769
H        6.964978146   5.850936919   5.637022663
H        5.591884401   6.488701669  -0.844412360
H        6.595803435   0.602434044   4.570220979
H        4.765916416   0.719943450   0.830178263
H       -0.576692052   4.810708612   6.835139072
H        1.660853848   5.871569774   0.384804118
H       -0.635897428   1.188443676   6.281138531
H        1.048347205  -0.870792150  -0.052757840
H        6.558420576   0.668865446   0.937434563
H        5.800147129   1.615339840   5.831022954
H        5.825388436   6.513444493   0.942270691
H        6.053772849   4.444764856   4.978491625
H       -0.069145285  -0.021398708  -1.171453198
H        1.074744469   0.918256303   5.791799205
H        0.724097822   6.588370481  -0.978898962
H        0.186779597   6.409219870   7.158531372
H        4.322322648   5.825728674   0.236405267
H        6.160422535   4.688925973   6.754775743
H        5.594465514  -0.809224032   1.304701026
H        4.804486987   0.698098872   4.649419873
H        0.947363751   4.808813438  -0.879503375
H        1.204836485   5.004569879   6.682604553
H       -0.729941133  -0.947160182   0.218024437
H        0.485421010   0.308214442   7.379178135
H       -0.567499951  -0.619038371   4.756150115
H        0.947161964   1.519614686   0.389070960
H       -0.809442811   6.418485627   5.012088252
H       -0.557698444   6.475622894   1.079239213
H        6.573977026  -0.504527243   6.732452223
H        5.785163765   0.519777477  -1.363889609
H        4.746150767   6.493663811   4.848027202
H        7.063724265   4.719475145  -0.102787603
H        0.037800746   5.049216487   4.496740454
H       -0.401287452   4.830444354   1.148898082
H       -0.898756677  -1.258322753   6.251384247
H        0.358674679   0.669752917   1.693504857
H        4.885558722   6.713681347   6.500555597
H        5.692106524   4.048690158  -0.742325819
H        5.655819805  -1.347331546   5.597184208
H        4.899877932  -0.860884962  -0.992711650
H       -0.715932602   1.435820182   0.643244640
H        0.637189838  -1.432216797   5.626439892
H       -1.258277646   5.518458230  -0.129596150
H        0.843157238   6.481785130   4.828083809
H        6.568746610  -0.906579926  -0.875969331
H        4.899219501  -0.439924053   6.798091426
H        5.903056049   4.091243555   0.922573997
H        4.036418779   5.390400763   5.884650044
