CRYSTAL
PRIMVEC
11.2820 0 0
0 11.1747 0 
0 0 11.3552
PRIMCOORD
96 1
Pb       2.973814818   2.823375716   3.109691832
Pb       2.776759806   2.709338122   8.824800015
Pb       2.940732527   8.455214113   2.876158921
Pb       2.834640328   8.334337982   8.603698525
Pb       8.633354506   2.854351661   3.091165088
Pb       8.324274876   2.821636821   8.787408971
Pb       8.637073072   8.463038264   2.834798251
Pb       8.374277479   8.506403387   8.532207259
Cl       2.312012830   2.847018277   5.993231677
Cl       3.596834443   2.579797059   0.346245421
Cl       2.304575539   8.238489995   5.757979346
Cl       3.218006231   8.661191566   0.083362933
Cl       8.885186133   3.327303903   5.974421670
Cl       7.898191311   2.415723453   0.319230274
Cl       8.687213123   7.830343848   5.701236123
Cl       8.480056919   9.082994803   0.026426948
Cl       3.514312133   0.060003136   3.298118006
Cl       3.030081915  -0.047136902   8.002226235
Cl       3.027715898   5.626377173   2.728552384
Cl       2.312963776   5.495410325   8.688203807
Cl       8.156461075   0.099407816   3.231789458
Cl       8.150665279   0.123977031   7.994299418
Cl       8.807845393   5.657923841   2.071473745
Cl       8.568686281   5.661011065   8.807943724
Cl       5.823971459   3.080628630   3.729324272
Cl       5.513296446   3.095619896   8.182663097
Cl       5.824908897   8.111807453   2.675431867
Cl       5.610289392   7.851460589   8.438887925
Cl       0.154140915   2.195938324   2.780922716
Cl      -0.159193123   2.794528952   9.488087554
Cl       0.155867002   9.144053864   2.679993222
Cl      -0.068941448   8.350679125   8.808144738
C        5.051656822   5.819921322   5.626095841
C        5.535178416   5.791789826  -0.245292488
C        5.869664445  -0.885964631   5.704966942
C        5.627820570  -0.014632416  -0.699614249
C        0.117218594   5.490493264   4.995535523
C        0.682581404   5.812848092   0.558456617
C       -0.361003589  -0.029370620   6.113887986
C        0.703540669  -0.066747435  -0.234786209
N       -0.371101823   5.774332864  -0.492018976
N       -0.072868136   5.751479604   6.451360751
N       -0.642377507   0.312857130   0.279608781
N        0.902899266  -0.034768293   5.324937574
N        5.753848070   5.070030369   1.041124540
N        6.402058816   5.552708581   6.193735145
N        5.714709038  -0.177945491   0.779429403
N        5.577275671   0.555205009   5.952558093
H        5.133988187   5.882292188   4.537944772
H        6.377843860   5.588579423  -0.914347467
H        6.941646509  -0.992888985   5.519322062
H        6.497146530  -0.501058658  -1.149634737
H        1.023076679   6.009847835   4.668483547
H        1.662127120   5.811337301   0.071921451
H       -0.895114667   0.909167874   5.927834634
H        1.408927311   0.733685939   0.020283455
H        5.630406725   1.055515161  -0.926845218
H        5.300666871  -1.215075959   4.831963861
H        5.464949533   6.862618110  -0.030650099
H        4.685702435   6.765773602   6.036465896
H        0.643362477  -0.194063449  -1.320581997
H       -0.103784972  -0.116524988   7.174885091
H        0.568651386   4.929577630   1.195942824
H       -0.762303567   5.868070339   4.462086703
H        4.600368516   5.435590753  -0.692781041
H        4.385825180   4.997019652   5.910798634
H        4.699817162  -0.479066240  -1.044376463
H        5.578506952  -1.450303474   6.597057474
H        0.551084401   6.724726238   1.152260319
H        0.219371433   4.409876191   4.852385372
H        1.004735335  -1.003638998   0.240768787
H       -0.974019003  -0.883864108   5.805216979
H        1.486566494   0.787862823   5.571543545
H       -0.982465836   1.160508726  -0.199919413
H       -0.213631055   6.754696964   6.637393335
H       -0.307770527   4.898528456  -1.046479365
H        5.694293366   1.138708866   5.105734999
H        6.575095263   0.254813347   1.150909504
H        7.084040082   6.298934294   5.949822003
H        6.660711001   5.341112952   1.466256509
H        0.748619908   5.457041810   7.014641767
H       -0.290404256   6.574222492  -1.149748916
H        0.710044574   0.003121776   4.315073264
H       -0.583092301   0.541187678   1.285324253
H        6.787467398   4.653013554   5.866402640
H        5.761320252   4.051112586   0.898533794
H        6.209233416   0.918153412   6.683105184
H        5.722737222  -1.172903037   1.060143220
H       -1.336159031  -0.453163230   0.154555616
H        1.449199087  -0.901269353   5.507916803
H       -1.305279093   5.802970462  -0.055558494
H       -0.907318809   5.252732902   6.798656155
H        4.911124610   0.263243430   1.253969701
H        4.614003494   0.673737447   6.305388734
H        4.990394483   5.289103336   1.709015493
H        6.366461824   5.511909438   7.220944481
