CRYSTAL
PRIMVEC
11.2820 0 0
0 11.1747 0 
0 0 11.3552
PRIMCOORD
96 1
Pb       2.730103245   2.801072068   2.918169178
Pb       2.858677100   2.735189770   8.583378504
Pb       2.856128380   8.448512797   2.897045619
Pb       3.007523518   8.435183685   8.630417628
Pb       8.406840386   2.864785509   3.079341005
Pb       8.508103268   2.850519601   8.723023254
Pb       8.494830203   8.423726055   3.039139904
Pb       8.579753441   8.462993968   8.755409351
Cl       3.377847327   2.906194192   5.755718012
Cl       2.696657891   2.964417287   0.079791453
Cl       2.879511901   8.092697940   5.812898504
Cl       2.762099894   7.914404994   0.124691135
Cl       8.213623418   2.260668735   5.919560054
Cl       8.736765166   2.782626746   0.238451182
Cl       8.636093223   8.933445024   5.905819554
Cl       9.098157767   8.224940387   0.226274442
Cl       3.414926466   0.094834659   2.560842779
Cl       3.704239147   0.035261463   8.681888271
Cl       2.405560159   5.660339738   3.190286014
Cl       2.768367921   5.592354850   8.659257539
Cl       7.920869095   0.084292591   2.619912812
Cl       8.165857256   0.071859252   9.175141049
Cl       9.106534710   5.683759345   3.483371392
Cl       9.105125767   5.670567733   8.336080015
Cl       5.540579494   3.430339268   2.641121590
Cl       5.636333398   3.128814004   9.143267851
Cl       5.644202248   7.725029345   2.860139780
Cl       5.774575071   8.113593271   8.311221933
Cl      -0.131894336   2.051718806   3.216167430
Cl      -0.022651603   2.245263776   8.383298436
Cl      -0.001196615   9.038765653   3.203211899
Cl       0.114170078   8.669812496   8.414113406
C        6.263547068   5.489660334   6.053405403
C        6.346705967   5.841963640  -0.157151330
C        5.306274377  -0.251857146   5.319488085
C        5.538303381  -0.733170765   0.098228143
C        0.221605473   4.969427805   5.997880555
C       -0.014282979   5.322530159   0.438531144
C        1.061320378  -0.018502742   5.925710451
C        0.489358825  -0.092814227  -0.124912935
N        0.160523168   6.072072132  -0.837082758
N        0.043564856   6.420998094   5.704155083
N       -0.794647117  -0.014979866   0.627111022
N       -0.402422181   0.238515931   5.849606396
N        4.958694970   5.419385707   0.182309428
N        4.985723218   5.642137577   5.304383320
N        5.714987830   0.745453968   0.195651933
N        6.162394951  -0.138849355   6.534193037
H        6.832927729   6.422500925   5.981409459
H        6.656299575   6.613533319   0.554530283
H        5.951760238  -0.279046213   4.434968706
H        6.084913144  -1.089158624  -0.780258980
H        0.848679550   4.539706864   5.210963142
H       -0.007842779   4.250326259   0.218320535
H        1.582265955   0.941193071   5.839197982
H        1.084660770   0.800072544   0.097230380
H        4.470470521  -0.944351566  -0.002626273
H        4.646948994   0.620638633   5.277699833
H        6.350350121   6.234017898  -1.179874946
H        6.829177468   4.661442172   5.613589397
H        0.262441132  -0.143405506  -1.195326961
H        1.338807479  -0.681604362   5.101981688
H       -0.968345620   5.617023474   0.888109968
H       -0.765241758   4.496470142   6.011700249
H        6.999897017   4.965171148  -0.081216701
H        6.029935983   5.272449072   7.101470904
H        5.925490249  -1.183212379   1.018221435
H        4.716984281  -1.171845862   5.395957512
H        0.813592251   5.577215657   1.108813942
H        0.707234844   4.867765912   6.972454327
H        1.022853303  -0.994937610   0.196578367
H        1.282811121  -0.487379134   6.888493445
H       -0.613805106   0.742915254   4.967887197
H       -1.357220052   0.812428779   0.355693819
H       -0.489383717   6.528296597   4.823012456
H       -0.604217145   5.871599449  -1.514126580
H        6.764219680   0.705474932   6.477662860
H        5.435247085   1.231720752  -0.673261981
H        5.156827483   5.874258930   4.313360312
H        4.301336489   6.220164417   0.216057604
H        0.955625124   6.907245828   5.613287814
H        1.061670008   5.848739838  -1.304531696
H       -0.684288666   0.849655271   6.635435405
H       -0.626376453   0.059352303   1.640734148
H        4.399232357   6.409434939   5.679937974
H        4.952466094   4.934577691   1.100526316
H        6.796073428  -0.949577851   6.608293968
H        6.698535049   0.990481746   0.383346181
H       -1.365730605  -0.866773597   0.469429119
H       -0.964001008  -0.630892797   5.878537613
H        0.148708447   7.085727381  -0.672803906
H       -0.482428990   6.889017738   6.455723796
H        5.146449393   1.115087296   0.973457984
H        5.580272269  -0.092119076   7.389094206
H        4.605070289   4.744783933  -0.512176301
H        4.424909867   4.767170875   5.348413913
