CRYSTAL
PRIMVEC
11.2820 0 0
0 11.1747 0 
0 0 11.3552
PRIMCOORD
96 1
Pb       2.888480848   2.777048482   2.929774038
Pb       3.093069333   3.016247575   8.565716343
Pb       2.805686773   8.434815702   2.924548575
Pb       2.873856539   8.461549170   8.498368907
Pb       8.502617020   2.738160949   3.065103122
Pb       8.744331469   2.772333095   8.723185900
Pb       8.555695663   8.231443826   2.930821592
Pb       8.585040306   8.299180623   8.582212547
Cl       3.127890060   2.324676030   5.756850066
Cl       3.107355085   3.339577789   0.071775342
Cl       3.192903992   9.087619103   5.692763397
Cl       2.805285834   7.661539983   0.010982405
Cl       8.881640406   2.849852265   5.893644599
Cl       8.524174109   2.233757855   0.219793799
Cl       8.347831548   8.101632950   5.754393295
Cl       9.188774796   8.508948039   0.085144657
Cl       2.787532821   0.022627376   2.100341600
Cl       3.140022118   0.164558901   8.992556466
Cl       2.949634406   5.608897697   3.580504938
Cl       2.925410875   5.758476791   7.637648779
Cl       8.628366325  -0.101936305   3.149165106
Cl       8.560858150  -0.055719237   8.281407720
Cl       8.277234881   5.484633778   2.617679018
Cl       8.626028618   5.540302716   8.969353335
Cl       5.684569583   2.720426200   2.667612546
Cl       5.917271997   2.659629907   8.689859437
Cl       5.687371081   8.263378966   2.836141768
Cl       5.724473287   8.441232032   8.458479679
Cl       0.052643516   2.672529710   2.986808039
Cl       0.286460492   3.304900055   8.704186031
Cl       0.058356806   8.630090002   3.247550801
Cl       0.083533844   8.474117285   8.194111946
C        6.110582686   5.249553180   5.715218047
C        6.008976192   5.685049834  -0.190406712
C        6.194732743   0.117446586   5.451512335
C        6.222709828  -0.480929799   0.083800304
C       -0.271140355   5.749695854   5.578375502
C       -0.128045717   5.123532344   0.500804910
C        0.432623522   0.325479299   5.886088774
C        0.387900085   0.112914829  -0.467972986
N        0.066964573   6.119369652  -0.592442697
N        0.527820711   4.496008571   5.680085570
N       -0.449685962   0.050230596   0.761299821
N       -0.777835460  -0.534111578   5.770235598
N        5.245581990   5.578214891   1.084508637
N        5.400393317   6.561222500   5.703213553
N        5.252097610   0.650627777   0.055711648
N        5.449095565   0.085363087   6.738546811
H        5.678915336   4.613965630   4.933023494
H        7.073446674   5.768364543   0.048925271
H        7.263822529   0.158955231   5.674173249
H        5.663858541  -1.419004715  -0.007725961
H       -0.075887463   6.211577135   4.604560084
H        0.648097759   4.356777486   0.413044178
H        1.097151421   0.121207766   5.040755668
H        1.173452360  -0.645165863  -0.394793956
H        6.768397805  -0.448145428   1.033271366
H        5.884774864   1.008073943   4.892823522
H        5.662578505   6.572138051  -0.733304763
H        5.972052939   4.785250768   6.698603951
H        0.841631186   1.107355394  -0.538870342
H        0.945435090   0.090106158   6.825504778
H       -1.124180266   4.679378639   0.399058136
H        0.038549876   6.426607548   6.382547831
H        5.827514052   4.783204268  -0.786294896
H        7.173527405   5.426685307   5.524214248
H        6.919368249  -0.363413914  -0.753818842
H        5.955628754  -0.788289143   4.883055119
H       -0.046572320   5.643583821   1.461748142
H       -1.330192060   5.493704335   5.681915520
H       -0.254742338  -0.082754652  -1.334786284
H        0.106026365   1.369716869   5.874923853
H       -0.531694700  -1.531196358   5.777418984
H        0.117944486   0.196075032   1.605693665
H        1.533215274   4.697440011   5.583659264
H       -0.021978310   5.666150061  -1.511928312
H        5.681506218   0.901417776   7.337150888
H        4.559600470   0.568834077   0.825139241
H        4.391725031   6.427034461   5.877653918
H        5.419085425   6.401687740   1.692766771
H        0.264095800   3.827218637   4.933361690
H        1.002276636   6.572880337  -0.510977844
H       -1.300819779  -0.350760329   4.890693095
H       -0.920090566  -0.870468365   0.827644922
H        5.512563302   7.053863914   4.799506174
H        5.510645017   4.725340409   1.611068129
H        5.654613892  -0.774402794   7.279073369
H        4.704963528   0.652885450  -0.826829129
H       -1.197750294   0.774109936   0.733297034
H       -1.427372665  -0.368730334   6.566970922
H       -0.647150665   6.869023833  -0.529334796
H        0.383225901   4.041121657   6.602473419
H        5.735836636   1.552177402   0.150604806
H        4.433758474   0.104630671   6.574071674
H        4.235168933   5.524689678   0.898406893
H        5.751117231   7.187858379   6.446941018
