CRYSTAL
PRIMVEC
11.2820 0 0
0 11.1747 0 
0 0 11.3552
PRIMCOORD
96 1
Pb       2.726528530   2.620590533   2.927161107
Pb       2.750611406   2.716617686   8.567752490
Pb       2.926302492   8.362841244   2.890604662
Pb       2.878457059   8.305477798   8.515717007
Pb       8.404724939   2.897794735   2.985563680
Pb       8.542580040   2.910973061   8.747636796
Pb       8.562294716   8.426341655   2.985239325
Pb       8.598205791   8.441443646   8.655759594
Cl       2.642484723   2.032185262   5.790114948
Cl       2.637198420   3.023190742   0.067121550
Cl       3.087356788   8.753782434   5.719589162
Cl       2.945706747   7.862111234   0.009565564
Cl       8.275754761   3.152109505   5.889979878
Cl       8.354315850   2.546921111   0.175964637
Cl       8.399583405   8.069687567   5.837301969
Cl       8.636736852   8.683277909   0.128292585
Cl       2.749215979  -0.088910594   2.057434307
Cl       2.749078984  -0.087370836   9.181528779
Cl       2.751189790   5.497885708   3.012093167
Cl       3.293006960   5.495916689   8.016816650
Cl       8.747265976   0.073366913   3.283528053
Cl       8.988646324   0.101723677   8.317964142
Cl       8.146195860   5.662211510   2.573354056
Cl       8.051078602   5.681156597   9.072183518
Cl       5.559087123   2.562423263   2.899551462
Cl       5.650593970   2.505144291   8.627400324
Cl       5.728887081   8.408510669   2.795717875
Cl       5.705513548   8.497385775   8.611770479
Cl      -0.050725207   3.013504529   3.408101450
Cl       0.040749949   3.513868838   8.364728954
Cl       0.105111467   8.333619027   2.773570389
Cl       0.079499301   7.904824571   8.819908577
C        5.319024386   5.578754529   5.183487891
C        5.402902010   5.244611717   0.198972133
C        6.146265369  -0.103719535   5.552148613
C        6.086015231  -0.236334676   0.109165728
C       -0.232845296   5.989189450   5.673108767
C       -0.464551087   5.503139476   0.547055049
C        0.262878217  -0.584491955   5.802822555
C       -0.305581354   0.244946771   0.105738904
N        0.739973644   5.521885652  -0.333539569
N        1.019187828   5.179431201   5.656614640
N        0.385005863  -1.075901223   0.050943248
N       -0.578518223   0.638346279   5.702924852
N        6.063487235   6.579322601   0.151231328
N        6.305371159   5.646242728   6.299120028
N        5.235755526   0.986252975   0.118226221
N        5.220543637  -0.057588883   6.722637023
H        5.866719762   5.595389113   4.234774158
H        5.569135506   4.741230402  -0.760443430
H        7.173166614  -0.146315895   5.928744483
H        7.134409686   0.072798878   0.064069523
H       -0.850395898   5.686546053   4.819707768
H       -1.050616576   6.410373825   0.364193551
H        0.826063928  -0.703702168   4.872239276
H       -0.083004461   0.793098779  -0.816215386
H        5.824419081  -0.839803601  -0.767056182
H        5.998684381   0.798650973   4.948765521
H        4.334253002   5.392480579   0.379342411
H        4.650862596   6.443233876   5.255654318
H        0.069960007   0.791502032   0.977782473
H       -0.399301217  -1.445406771   5.955352755
H       -0.130506149   5.470049259   1.588920456
H        0.034868448   7.047252118   5.589810958
H        5.850892088   4.669652022   1.016701575
H        4.749365861   4.648270744   5.277457101
H        5.895512893  -0.800717298   1.028251975
H        5.919527542  -0.999309240   4.962847013
H       -1.061427700   4.614833897   0.309466323
H       -0.760302107   5.798903894   6.613270089
H       -1.381303271   0.072694171   0.197435138
H        0.952530219  -0.473151296   6.646073964
H       -1.231348576   0.558903240   4.890956103
H        1.403390191  -0.951337591  -0.031096696
H        1.560355748   5.338644382   4.776775372
H        1.341109376   6.350671130  -0.155230760
H        5.401514998   0.777951569   7.315208256
H        5.394908646   1.555983065  -0.733131069
H        6.908632591   6.490158612   6.218382113
H        5.697674703   7.154271855  -0.621347948
H        0.803258682   4.175757524   5.694805562
H        0.469363596   5.537420328  -1.325254293
H       -0.000600971   1.476465661   5.559700413
H        0.072191920  -1.647062585  -0.750382644
H        6.940781731   4.819902464   6.276534754
H        7.077290895   6.484735637   0.004717421
H        5.336062565  -0.900140721   7.317173054
H        5.439370590   1.570812305   0.955128460
H        0.209950435  -1.626789671   0.916440376
H       -1.153608075   0.740759949   6.561676450
H        1.329806270   4.677357795  -0.177458803
H        1.638917673   5.392430948   6.460802892
H        4.237054045   0.740639538   0.160501460
H        4.238876946  -0.019544308   6.418093225
H        5.924367900   7.109887255   1.036005045
H        5.834019096   5.672895203   7.211869876
