CRYSTAL
PRIMVEC
11.2820 0 0
0 11.1747 0 
0 0 11.3552
PRIMCOORD
96 1
Pb       2.949850477   2.633509368   2.659904998
Pb       2.969973373   2.908025070   8.385809692
Pb       2.874247542   8.251123840   3.026816602
Pb       2.874973534   8.519699171   8.697885901
Pb       8.603070758   2.722592831   2.869703622
Pb       8.596581187   2.839021754   8.575706046
Pb       8.457761159   8.372258344   3.215457719
Pb       8.458170729   8.399219698   8.887558500
Cl       3.308416083   3.226802998   5.502584663
Cl       3.284464026   2.273590382  -0.176353533
Cl       2.535173451   7.917383307   5.888533054
Cl       2.506899830   8.791457368   0.204905444
Cl       8.254395374   3.101541947   5.729507369
Cl       8.353917695   2.420145492   0.050110868
Cl       8.654950106   7.947134002   6.038972588
Cl       8.654407955   8.807281940   0.356136450
Cl       3.300020610  -0.115090739   3.486701454
Cl       2.615194484   0.107497618   7.861284108
Cl       2.558366154   5.441870905   2.234536425
Cl       3.284022915   5.666306444   9.203938776
Cl       8.090920328   0.027637436   3.485576758
Cl       8.495673745   0.005255003   8.556296051
Cl       8.520386921   5.567060604   2.949216319
Cl       8.128102381   5.543696673   9.241853112
Cl       5.765910243   3.035405029   2.683241806
Cl       5.773031189   2.572305178   8.474373311
Cl       5.655734129   8.019828029   3.466532510
Cl       5.653953285   8.805893310   9.069084593
Cl       0.144018335   1.950275623   2.819446720
Cl       0.152067008   3.614779424   8.504338147
Cl       0.045772887   8.664601059   3.184520670
Cl       0.040585669   8.095480615   8.842536347
C        5.630493697   5.844744762   6.529022741
C        5.765858336   6.173353691   0.492550485
C        5.749133681  -0.370219096   6.200840272
C        5.611054923  -0.335213478   0.833238723
C        0.104303979   5.216008319   5.035461179
C       -0.497062987   5.601621934   0.596010355
C       -0.495902733  -0.003735610   6.236413138
C        0.112156350   0.322609468  -0.689579583
N        0.624312405   5.749843672  -0.372949390
N       -0.044237741   6.046127157   6.263994429
N       -0.046766781  -0.476939275   0.558136015
N        0.646691969  -0.159885777   5.294179990
N        5.704849447   4.829222810  -0.149070628
N        5.875588918   5.312002966   5.158791054
N        5.931344192   0.291256601  -0.479630527
N        5.717642614   0.933255428   5.478015350
H        4.618396078   6.260929241   6.559751049
H        4.931191065   6.254399176   1.194917903
H        4.919162379  -0.984392430   5.835073295
H        4.606499602  -0.766546105   0.773799386
H        0.075730911   5.877971184   4.163510793
H       -1.443204022   5.583171773   0.044578668
H       -1.428979396   0.027001406   5.662799116
H        0.064302368  -0.358845653  -1.545602436
H        5.648647450   0.438580714   1.606070190
H        5.646358744  -0.172936943   7.270232478
H        5.687417425   6.933863159  -0.292446521
H        6.372902448   6.622377443   6.733479804
H        1.084252448   0.826765709  -0.657205301
H       -0.357859573   0.925531166   6.800643543
H       -0.473600427   6.449930795   1.287608179
H       -0.726591048   4.503678261   4.996507707
H        6.718710962   6.258814687   1.024633296
H        5.729626353   5.024863849   7.247665396
H        6.354860928  -1.111116614   1.037385389
H        6.708909828  -0.855230831   5.991983288
H       -0.354002274   4.668738564   1.152601252
H        1.065372470   4.692040512   5.083696215
H       -0.703413037   1.051148754  -0.738863366
H       -0.499543222  -0.855535891   6.924003046
H        0.668007916   0.601489101   4.593323803
H        0.734303163  -1.158360498   0.639973397
H       -0.925077064   6.602329407   6.245839486
H        0.538843619   6.631162499  -0.915381133
H        4.830947226   1.444577067   5.625930843
H        5.214845983   0.994917959  -0.721805460
H        5.850840032   6.081631623   4.459404631
H        4.832029852   4.738949290  -0.695557747
H        0.744057027   6.721155233   6.329453455
H        0.628218442   4.986288315  -1.072472509
H        0.564688463  -1.041290958   4.750633510
H       -0.933775734  -1.023834771   0.550943410
H        5.155673022   4.612996304   4.915302087
H        5.746433766   4.079411589   0.560044138
H        5.828192792   0.784610659   4.466451257
H        5.958026467  -0.427007311  -1.227753485
H       -0.037767374   0.136218467   1.391200177
H        1.540725700  -0.166295177   5.814088937
H        1.528702380   5.753018857   0.126908804
H       -0.038668281   5.450558151   7.110067335
H        6.843403714   0.781116264  -0.454113742
H        6.491906877   1.552753747   5.776043132
H        6.499948039   4.727290449  -0.806639790
H        6.794163918   4.843102460   5.097782179
