CRYSTAL
PRIMVEC
11.2820 0 0
0 11.1747 0 
0 0 11.3552
PRIMCOORD
96 1
Pb       3.005062958   2.718190968   3.137979677
Pb       2.740956840   2.847037637   8.774714946
Pb       2.992419877   8.312689080   2.736524172
Pb       2.716452154   8.516122004   8.384678954
Pb       8.706036814   2.680425605   3.156212022
Pb       8.384718648   2.740002425   8.945334513
Pb       8.626879535   8.325046232   2.709346764
Pb       8.390856219   8.397651787   8.420528022
Cl       2.773980018   2.377789265   5.929395616
Cl       2.751200500   2.605570858   0.242680757
Cl       3.136481591   8.782008648   5.552960044
Cl       2.403830703   8.349931882  -0.100979103
Cl       8.727947269   2.798269167   6.060775062
Cl       8.419856388   3.094635794   0.382274593
Cl       7.991902375   8.349613301   5.555346906
Cl       8.838198589   7.946860105  -0.145643322
Cl       3.563825880  -0.070594145   2.541895967
Cl       2.124256575   0.049143855   8.942242354
Cl       2.595487647   5.543033649   3.289137109
Cl       3.093839832   5.695718919   8.879457685
Cl       8.310613770  -0.077740845   3.004164884
Cl       8.881412635  -0.041490403   8.577484439
Cl       8.951192036   5.567450167   3.393054214
Cl       7.790395038   5.534816686   8.573766303
Cl       5.859867695   2.820241370   3.595456945
Cl       5.530466793   2.399780365   8.941141169
Cl       5.800752039   7.937837028   2.303895164
Cl       5.524658887   8.771722839   8.962141628
Cl       0.238383088   2.140694947   3.169756431
Cl      -0.091259489   3.229565160   8.975032401
Cl       0.170676009   8.683326027   2.976101555
Cl      -0.090507183   7.877604426   8.005856307
C        5.280904701   6.029851580   5.801488658
C        5.415000129   4.979769777   0.533591928
C        5.887045047   0.316136824   6.268120417
C        6.358073746  -0.025122705   0.233092451
C        0.329559594   5.003086813   6.030658288
C        0.138970516   5.369122866   0.715373894
C       -0.228300695  -0.394619639   5.666513931
C       -0.485051880   0.116713530   0.082988376
N        0.052832472   5.956633528  -0.651887632
N        0.155538148   6.262013704   5.257396909
N        0.844291582  -0.023447014   0.737759963
N       -0.030030168   0.857121002   6.449451235
N        5.607518588   6.120981983  -0.406728517
N        6.529948761   5.240624281   5.621749774
N        4.997471667   0.021111375  -0.370366064
N        5.752192009  -0.517646129   5.038522635
H        4.820616777   6.188896970   4.821284377
H        5.283867439   4.064210895  -0.052840052
H        5.070079615   1.043778655   6.287301917
H        7.093003826  -0.142471114  -0.572621685
H        0.461584699   4.176264295   5.323723296
H       -0.790457935   4.824344930   0.912505100
H        0.681128951  -1.001995766   5.734995319
H       -0.322535286   0.252659222  -0.989557124
H        6.401540119  -0.874798582   0.921820215
H        6.853539429   0.830321395   6.237624178
H        4.525079824   5.179444875   1.141656774
H        5.538665834   6.989822559   6.260121425
H       -0.995915448   0.989325438   0.504673674
H       -0.420441715  -0.123389223   4.624586529
H        0.266885272   6.184927254   1.435389979
H       -0.560214296   4.837804454   6.645050785
H        6.299737843   4.896050594   1.171933624
H        4.600383071   5.470690244   6.454011291
H        6.537585219   0.909192741   0.774614002
H        5.833099960  -0.345413808   7.140015294
H        0.994803665   4.686537481   0.750989605
H        1.214313428   5.104463600   6.668929004
H       -1.065198524  -0.795675593   0.261651685
H       -1.085985180  -0.934657665   6.080867253
H        0.815344307   1.369244652   6.128520082
H        1.439534540   0.808637638   0.555804808
H       -0.692405622   6.199060074   4.657908805
H       -0.756923331   6.603875372  -0.708892406
H        5.802360370   0.061499594   4.190367601
H        4.841110410  -0.827111859  -0.942995237
H        7.212117382   5.734777148   5.022619436
H        4.784599650   6.227530028  -1.028248841
H        0.963127751   6.404836154   4.628080326
H       -0.050850964   5.206539910  -1.362492735
H        0.101514405   0.650423652   7.448097697
H        1.344402052  -0.861264471   0.387537955
H        6.337844992   4.329687763   5.159944656
H        6.426234226   5.973732845  -1.027147298
H        4.848853330  -1.026698584   5.043056390
H        4.922028248   0.842828855  -1.000576847
H        0.747283112  -0.116809813   1.756420584
H       -0.852101046   1.489756564   6.357698949
H        0.900393619   6.497597704  -0.873807343
H        0.061610958   7.062180043   5.907746490
H        4.283402239   0.086712594   0.374950987
H        6.513680508  -1.221709200   4.999682233
H        5.747881197   6.994157125   0.126835640
H        6.994983251   5.080398951   6.534568628
