CRYSTAL
PRIMVEC
11.2820 0 0
0 11.1747 0 
0 0 11.3552
PRIMCOORD
96 1
Pb       2.962578882   2.574324946   3.068832360
Pb       2.659258152   2.672864228   8.668045330
Pb       2.889195273   8.181267277   2.804896516
Pb       2.884438933   8.224796049   8.537853199
Pb       8.546438302   2.944966382   3.134721357
Pb       8.343905930   3.043399348   8.755808003
Pb       8.632199751   8.537736680   2.956630041
Pb       8.544847559   8.629500526   8.593546559
Cl       2.529540376   2.501546423   5.875274466
Cl       3.004371211   2.283553452   0.188798699
Cl       3.199139789   8.015592439   5.663377741
Cl       2.430535560   8.040822858  -0.033936783
Cl       8.557995487   2.606217351   5.957782659
Cl       8.199151400   3.481496350   0.275586508
Cl       8.054820025   9.002625023   5.764358569
Cl       8.915317392   7.990014549   0.073541459
Cl       2.228039092  -0.188461143   2.894487321
Cl       2.661757424  -0.142321234   8.508366844
Cl       3.224531659   5.391925963   2.942810530
Cl       2.535799655   5.452267400   8.364950041
Cl       9.057966235   0.176593735   2.585817936
Cl       8.391841965   0.233263762   9.045200131
Cl       8.080439688   5.768515499   3.369247000
Cl       8.023339389   5.848646469   8.282615527
Cl       5.786759469   2.261562915   3.373778541
Cl       5.520919347   2.489668020   8.473633835
Cl       5.728447813   8.428765939   2.570345727
Cl       5.697060270   8.466591071   9.229909621
Cl       0.145075288   3.119461872   3.128413154
Cl      -0.135764967   3.027448082   9.254291923
Cl       0.086540312   7.972967595   3.621005640
Cl       0.062616820   8.334293921   8.154666032
C        5.433444873   4.972694359   5.910757088
C        5.111209088   5.253126411  -0.116573659
C        5.065766517  -0.440813764   5.817705149
C        6.256416027   0.226586645   0.498356805
C       -0.417132633   5.239620150   6.147047392
C        0.212643748   5.264796086   0.634791936
C       -0.338750762   0.240308113   5.917312705
C        0.019339680  -0.405435520  -0.126850830
N        0.038345170   6.009461184  -0.644139668
N        0.851485108   5.411492436   5.385907484
N        0.020440033   0.973489003   0.438363363
N        0.868447458  -0.626105751   5.776829230
N        6.280236223   6.100900546   0.252090849
N        6.010896922   6.335016159   5.730648622
N        5.325230769   0.138902515  -0.663335763
N        6.211290200   0.494649356   5.966018680
H        4.809981532   4.745848538   5.040309830
H        5.349853517   4.721564440  -1.045093755
H        5.202029734  -1.015705250   4.895155788
H        6.370323007   1.279005630   0.775788944
H       -1.253087085   5.285150014   5.440129173
H       -0.617408357   4.560025120   0.737430903
H       -1.048850683  -0.015694167   5.124175425
H        0.552495703  -0.398132278  -1.083978940
H        7.223956491  -0.185711123   0.197092992
H        4.141445592   0.146459456   5.780335127
H        4.236735049   5.899338263  -0.253172477
H        4.832076545   4.963277358   6.825749794
H       -1.018859842  -0.721189751  -0.265626672
H       -0.023553029   1.283214833   5.814292899
H        0.205700242   5.984427918   1.461739205
H       -0.494611749   6.047734950   6.881321959
H        4.926827520   4.538820756   0.691433948
H        6.259024721   4.256306128   5.987627242
H        5.838716704  -0.347087324   1.331644611
H        5.052553366  -1.116755521   6.678432659
H        1.169082239   4.731528814   0.608776641
H       -0.396845101   4.264598938   6.644104058
H        0.529396148  -1.065596530   0.582071783
H       -0.786916555   0.068197577   6.902739182
H        1.333991939  -0.467633825   4.858175500
H       -0.386412058   1.648929022  -0.230104718
H        0.832090187   6.308113524   4.863960006
H       -0.841774190   6.561422716  -0.617160943
H        6.249919304   1.144666044   5.153626789
H        5.636046550   0.757780428  -1.434702337
H        5.259780507   7.043474357   5.648950304
H        6.495091237   6.775727907  -0.497542852
H        0.952077098   4.651706637   4.691461803
H        0.029237544   5.356333593  -1.441461151
H        0.621381257  -1.622466764   5.835094481
H        0.986073241   1.296388159   0.625238449
H        6.603630140   6.360020706   4.876779599
H        7.113953673   5.502707954   0.401633290
H        7.096630678  -0.035482306   6.008829934
H        4.381028857   0.467343010  -0.403690252
H       -0.524655385   0.987377464   1.319364512
H        1.544547746  -0.426993091   6.536061557
H        0.815771445   6.683922291  -0.761089947
H        1.665216424   5.404493310   6.016706250
H        5.280212987  -0.826328301  -1.043761740
H        6.123678647   1.076295873   6.818411242
H        6.107579981   6.655263383   1.111584390
H        6.623423914   6.565282855   6.530201042
