CRYSTAL
PRIMVEC
11.2820 0 0
0 11.1747 0 
0 0 11.3552
PRIMCOORD
96 1
Pb       2.883431669   2.703761401   2.993139505
Pb       3.036918659   2.709775591   8.583236687
Pb       2.851699637   8.305829982   3.025950794
Pb       3.109596896   8.277326442   8.722102976
Pb       8.506198151   2.853167441   2.914863397
Pb       8.659055454   2.961332456   8.601467317
Pb       8.523026562   8.449330497   2.881103765
Pb       8.741486305   8.491039132   8.565263827
Cl       2.364527417   2.503066928   5.755208522
Cl       3.160179397   3.199637413   0.085016012
Cl       2.627552304   8.086894955   5.848160869
Cl       3.199231733   7.717551023   0.194810942
Cl       9.076455661   2.621449029   5.800619058
Cl       7.953354297   2.714352578   0.125234222
Cl       8.785557706   9.006387286   5.724583730
Cl       8.188442454   8.719957144   0.054658551
Cl       2.018047847  -0.075757331   2.860343882
Cl       2.943884978  -0.126644594   9.264325032
Cl       3.359485397   5.501687387   3.362153291
Cl       3.417231969   5.454184753   8.106916602
Cl       9.114405748   0.065806729   2.702528451
Cl       8.962598476   0.144635027   8.946561389
Cl       7.794795873   5.647930813   2.894461520
Cl       8.158897021   5.749567724   8.128236799
Cl       5.804249574   2.143191641   3.338769851
Cl       5.904269530   2.229026416   8.255051396
Cl       5.726389770   8.702250495   3.376938195
Cl       5.953770517   8.800038248   8.274418225
Cl       0.169140600   3.628257075   2.827719579
Cl       0.263982614   3.535061600   8.774247816
Cl       0.076632836   7.913520392   2.426183509
Cl       0.310240768   8.160334922   9.251709517
C        5.974467053   4.900674890   5.704066328
C        6.069062284   5.715370474  -0.562885669
C        4.851701756  -0.118719841   5.926436860
C        5.181820708  -0.121572916   0.584696691
C       -0.366992701   6.234266245   5.823365744
C       -0.929692234   5.576885968  -0.088996944
C        0.445082750  -0.342647993   6.590110822
C        0.235764251   0.797512006   0.032167938
N        0.537261492   5.473328353   0.155187208
N        0.685391368   5.178483431   5.837787032
N       -0.127051636  -0.642198396   0.175813808
N       -0.155832870   0.141689468   5.314738242
N        5.386216764   5.441601692   0.732924014
N        5.669796398   6.358480924   5.787464655
N        6.167252512   0.047600254  -0.521068646
N        6.315504329   0.151947809   5.827608894
H        7.056036530   4.775651194   5.604513333
H        6.884689061   4.997883420  -0.680542542
H        4.610703471  -0.977281283   5.294364299
H        4.651798806  -1.069110877   0.436459935
H       -0.257802632   6.820223009   4.904396099
H       -1.090464826   5.844647425  -1.137606383
H        1.374754653   0.204002040   6.770375666
H        1.326313699   0.882641297   0.032381047
H        4.475131385   0.714798913   0.548176145
H        4.320746824   0.775607090   5.586381200
H        6.460336850   6.737646733  -0.543386911
H        5.458615363   4.491153959   4.831839645
H       -0.192068041   1.341658367   0.881303187
H        0.650404924  -1.412977638   6.492916258
H       -1.337700762   6.344225533   0.575405740
H       -0.221558071   6.873809542   6.701131681
H        5.341290115   5.600955422  -1.373925279
H        5.622232649   4.427262220   6.625173055
H        5.723090266  -0.125929993   1.536384599
H        4.606395057  -0.328427350   6.971632824
H       -1.383037034   4.603689608   0.129649451
H       -1.347187996   5.747606892   5.867249872
H       -0.176547435   1.163901300  -0.913201863
H       -0.269937068  -0.162254672   7.399720874
H        0.525347317   0.115021090   4.530501603
H        0.228955413  -1.026775532   1.065107469
H        1.626595191   5.598836947   5.845437867
H        1.007795440   6.387748386   0.072814352
H        6.517241635   0.595927144   4.915107470
H        5.699629949   0.080476553  -1.436958643
H        5.931987385   6.865162748   4.923905312
H        6.058757350   5.458476645   1.523993267
H        0.615148494   4.571747968   5.002731754
H        0.965518617   4.823758296  -0.522947273
H       -0.519949261   1.105939608   5.412392393
H        0.243106454  -1.223747368  -0.599075822
H        6.158605267   6.792761840   6.585747170
H        4.895730119   4.530984645   0.701788361
H        6.889425435  -0.701792991   5.926322979
H        6.844508296  -0.737590291  -0.527178018
H       -1.150118089  -0.772258343   0.180461112
H       -0.965405429  -0.446658591   5.059496913
H        0.704864863   5.095778167   1.105639803
H        0.606253446   4.577632501   6.678643707
H        6.713281829   0.924771598  -0.408246124
H        6.580670986   0.824494820   6.569466967
H        4.653316966   6.154651735   0.895480642
H        4.659240712   6.516308669   5.928314542
