CRYSTAL
PRIMVEC
11.2820 0 0
0 11.1747 0 
0 0 11.3552
PRIMCOORD
96 1
Pb       2.989390531   2.863973164   2.885223756
Pb       2.868980019   2.555535969   8.536177574
Pb       2.979122018   8.435101683   2.720584116
Pb       2.872794717   8.240929115   8.443261376
Pb       8.556801192   2.915868870   3.088965640
Pb       8.528589762   2.645911070   8.795366494
Pb       8.578583026   8.502910475   3.054435352
Pb       8.458043658   8.243162334   8.782499580
Cl       2.996832243   2.943248802   5.738305746
Cl       2.644530057   2.517230843   0.069841305
Cl       3.199649122   7.966774055   5.564756555
Cl       3.034534911   8.903865467  -0.112414565
Cl       8.279128008   2.798590337   5.934504013
Cl       9.126100968   2.744881076   0.254232648
Cl       8.178542106   8.239745396   5.914842538
Cl       8.625627769   8.886315179   0.237567834
Cl       3.042988110   0.039442445   3.029103561
Cl       2.440400917  -0.182519123   7.979806792
Cl       2.464451088   5.609348569   2.299877196
Cl       3.018110665   5.403262715   9.094644639
Cl       8.351732623   0.096043975   3.292164739
Cl       8.727492676  -0.151403779   8.713616222
Cl       8.905147825   5.674459233   3.445980187
Cl       7.945706444   5.413513506   9.055769821
Cl       5.789381550   3.648722781   2.691456808
Cl       5.688468791   2.015385657   8.979264537
Cl       5.800035670   8.442114223   2.744460193
Cl       5.664186345   8.795042992   8.557606689
Cl       0.141507556   2.485818022   3.149438782
Cl       0.022721928   3.190001587   8.375005781
Cl       0.159400324   8.892026286   3.107237455
Cl      -0.020680517   7.846127074   8.329823640
C        5.635343647   5.440985621   6.396628553
C        5.628732116   6.200355358   0.218078779
C        5.381577943  -0.041055506   5.443348314
C        5.825123561   0.565057420   0.821240406
C        0.561249856   5.600010948   5.333446753
C       -0.451833316   6.120395412   0.131614504
C       -0.450181889  -0.008373055   6.152468057
C        0.267103452  -0.018808093  -0.454084908
N        0.412749941   4.919588694  -0.051235643
N       -0.639186078   5.526156593   6.217049093
N       -0.302328645   0.079368033   0.922025506
N        0.756821558   0.073376047   5.283841978
N        5.475606939   4.821451896  -0.322840884
N        5.749088113   6.099570397   5.063575798
N        5.829218737  -0.541911873  -0.175912894
N        6.601746414  -0.035352256   6.300353612
H        4.667712847   4.930899863   6.448712614
H        5.557070166   6.911800739  -0.612831986
H        5.693917789  -0.167700083   4.402407464
H        4.946607165   1.191112415   0.630817225
H        1.458430933   5.532696034   5.956729258
H        0.146372137   7.016380787  -0.064989326
H       -1.339382742   0.024652143   5.513705126
H        1.356250820  -0.070749232  -0.375911623
H        6.746162168   1.145936104   0.694775329
H        4.850025441   0.908064792   5.577806751
H        6.602629800   6.281276135   0.711297565
H        5.703871183   6.219764867   7.164292683
H       -0.037606187   0.869131633  -1.018218471
H       -0.438974657   0.842783282   6.840747825
H       -0.819912542   6.121265212   1.164229841
H        0.540542821   6.553685230   4.795918474
H        4.824820999   6.372685863   0.938655362
H        6.454092400   4.722595126   6.507321451
H        5.780440615   0.128252601   1.823302505
H        4.744851233  -0.879546507   5.747234421
H       -1.289678868   6.056209246  -0.570717931
H        0.526331379   4.766301584   4.625506969
H       -0.131431715  -0.920955428  -0.930321775
H       -0.410108288  -0.944349911   6.720122083
H        0.757224115   0.942033090   4.721761636
H        0.004509650   0.937069635   1.415211607
H       -0.627183604   6.321592089   6.888105703
H        1.175423655   4.922264026   0.656410150
H        7.223954469   0.759266320   6.063360966
H        5.880955257  -0.159653138  -1.131941714
H        4.959960701   6.766750456   4.948305850
H        6.231754674   4.632019192  -1.003117175
H       -0.625154472   4.654451716   6.777984687
H        0.858163602   4.899213884  -0.980810130
H        0.782894216  -0.713720534   4.611776404
H       -0.035052625  -0.729935903   1.516436227
H        5.742434546   5.414758020   4.288222648
H        4.569697919   4.739749984  -0.824095316
H        7.137006545  -0.916706499   6.193891568
H        4.964532967  -1.118809850  -0.118718306
H       -1.329392574   0.102722587   0.894793125
H        1.608517116   0.049167723   5.871051436
H       -0.143237943   4.055152823   0.052814100
H       -1.496550737   5.562207891   5.643198445
H        6.645928592  -1.166514082  -0.038148504
H        6.360262898   0.056018269   7.296129528
H        5.514719077   4.137123885   0.450574915
H        6.621473944   6.647935658   5.008380773
