CRYSTAL
PRIMVEC
11.2820 0 0
0 11.1747 0 
0 0 11.3552
PRIMCOORD
96 1
Pb       2.744561069   2.738744395   2.776039947
Pb       2.911996657   2.804821723   8.398611062
Pb       2.962628599   8.340189682   3.012588286
Pb       3.045942732   8.422694234   8.652400784
Pb       8.408721981   2.595405231   2.819133796
Pb       8.521866774   2.823991306   8.510535515
Pb       8.585437754   8.197398588   3.119415655
Pb       8.637185459   8.391129431   8.848516408
Cl       2.767141161   3.682911508   5.559612574
Cl       3.120114593   2.409269709  -0.105777980
Cl       3.087783817   7.818565503   5.860545879
Cl       2.451232590   8.765001421   0.171983741
Cl       8.043378263   2.846452679   5.630128016
Cl       8.106493842   2.410460843  -0.066583550
Cl       8.675648342   8.215102526   5.991937874
Cl       8.862554301   8.885178521   0.326062790
Cl       2.486522892  -0.072247108   3.381625303
Cl       2.408292499  -0.099189463   8.010257159
Cl       2.901676263   5.531370329   2.200371047
Cl       3.445522649   5.496280685   9.135938966
Cl       8.766129482  -0.188555944   3.473837044
Cl       9.081724281  -0.023220054   8.221455698
Cl       8.152420595   5.392074793   2.738153790
Cl       8.023094222   5.566739738   9.122929516
Cl       5.568210453   2.794892122   2.716244693
Cl       5.729897306   2.201810828   8.391091803
Cl       5.797392226   8.328676218   3.401270559
Cl       5.851276914   9.234505529   8.804840215
Cl      -0.057849409   2.651374993   2.436755782
Cl       0.132128776   3.375570011   8.812681272
Cl       0.176728262   8.186268700   3.455393209
Cl       0.218585070   7.775250320   8.556537344
C        5.976131754   5.590329900   6.338513522
C        5.748582929   6.438217050   0.202387040
C        5.286315099   0.013959308   5.429741986
C        5.620020273  -0.480248848   0.913745764
C       -0.663460511   5.024514487   5.570515926
C       -0.474019730   5.793541837   0.468618672
C        0.028531213   0.958684489   5.777144667
C        0.017635955   0.330959990  -0.411217035
N        0.778374868   5.648223614  -0.325971944
N        0.447478188   5.981237437   5.832911808
N        0.055607757  -0.311544427   0.934861894
N        0.073595111  -0.529266642   5.862345707
N        5.692450569   4.954679806   0.060463385
N        5.481187787   5.421961536   4.940277730
N        5.628121395   0.394297679  -0.290932127
N        6.618457502  -0.096492725   6.088695832
H        5.305021430   6.284457092   6.854399066
H        5.881045446   6.868119688  -0.795739987
H        5.438520032   0.231195292   4.368001274
H        4.771260358  -1.168190020   0.831412488
H       -0.522978422   4.587329206   4.574883275
H       -1.324822156   5.827344268  -0.221689358
H        0.965069840   1.302616165   5.327684515
H        0.869892025   1.012050131  -0.497513807
H        5.515622291   0.150493839   1.803183867
H        4.736433481   0.829076624   5.912176414
H        6.593462902   6.692875526   0.848591837
H        6.992989222   5.993225199   6.304983571
H       -0.924469938   0.879463119  -0.506131454
H       -0.074760248   1.349387414   6.795134192
H       -0.410729057   6.721851360   1.046059272
H       -1.613714016   5.566409137   5.616075792
H        4.805037959   6.774610025   0.642884688
H        5.966365917   4.612967710   6.832025719
H        6.561983984  -1.037807803   0.947396789
H        4.749228228  -0.932743718   5.551762518
H       -0.562454969   4.933455166   1.139707998
H       -0.628088474   4.242402679   6.335154068
H        0.078905408  -0.453874520  -1.172172625
H       -0.828463969   1.247736791   5.162520251
H        0.852226121  -0.792453860   6.495504875
H        0.048026555   0.402844133   1.681152341
H        0.468500840   6.729840896   5.114427257
H        0.897522359   6.450820594  -0.964285792
H        7.147036667   0.793260527   6.001293947
H        4.777384032   0.989983839  -0.332031102
H        5.477190215   6.331009926   4.439263341
H        6.555210624   4.606313266  -0.385864606
H        1.358094929   5.488554811   5.810024937
H        0.736543292   4.804379194  -0.929227298
H        0.225975425  -0.969294706   4.942023873
H        0.906700472  -0.892534536   1.024317996
H        4.522657772   5.028589539   4.949337677
H        4.892877921   4.702445059  -0.547431126
H        7.194619320  -0.843695434   5.673893217
H        5.679278988  -0.176795763  -1.154206694
H       -0.767715764  -0.932411325   1.042897982
H       -0.805610186  -0.897865006   6.257144740
H        1.605287770   5.592716128   0.294701616
H        0.351826816   6.449481396   6.755245008
H        6.445120256   1.038942099  -0.283944468
H        6.516571417  -0.310486948   7.092542520
H        5.583598718   4.471637554   0.968299702
H        6.080587074   4.776454313   4.405800862
