CRYSTAL
PRIMVEC
11.2820 0 0
0 11.1747 0 
0 0 11.3552
PRIMCOORD
96 1
Pb       2.788917397   2.853971172   2.914419124
Pb       2.901646353   2.862557948   8.724725342
Pb       2.900235342   8.451395569   2.977685123
Pb       3.101042679   8.381631402   8.678715679
Pb       8.411561407   2.842670242   2.872725204
Pb       8.508586452   2.640335472   8.626474652
Pb       8.436121272   8.355026435   2.940408393
Pb       8.731240383   8.199123813   8.518637839
Cl       3.034779251   2.840956431   5.809493366
Cl       2.659424149   3.404572708   0.154018887
Cl       2.900530866   8.340537724   5.825330661
Cl       3.115591987   7.962374181   0.177428607
Cl       8.494138485   2.688905662   5.748056771
Cl       8.237388714   2.261261618   0.093683708
Cl       8.933079014   8.357188557   5.702438591
Cl       8.644902287   8.202196110   0.064260852
Cl       3.659216393   0.066598005   2.851955110
Cl       2.766533657   0.024392050   9.467730661
Cl       2.192758887   5.630109827   3.263436787
Cl       3.597004918   5.608080636   8.504458364
Cl       8.007743928   0.049841246   3.203912574
Cl       9.218065663  -0.165921470   8.435603430
Cl       9.257202844   5.635984935   3.035326825
Cl       8.212885391   5.421604009   8.825892989
Cl       5.607107219   3.319476690   3.125275116
Cl       5.698734040   2.215196888   8.593309281
Cl       5.636844439   7.638213694   2.934183104
Cl       5.928547490   8.534707482   8.480779819
Cl      -0.023222601   2.402192959   3.314125428
Cl       0.094292358   2.971271708   8.279445259
Cl       0.018077845   9.000264665   2.640392065
Cl       0.295946409   7.924915493   9.156471516
C        6.127453052   5.674895928   6.000083396
C        6.018749253   5.176550564   0.324184715
C        5.784337619  -0.330379613   6.091259089
C        6.133474285  -0.576145255   0.006898064
C        0.131545887   5.902999079   6.534786684
C       -0.495748661   4.897120617   0.088574830
C        0.608083256  -0.133164113   6.122967398
C        0.099457180   0.592030046   0.498719682
N        0.312503414   6.088817867   0.478243272
N       -0.028778225   4.840682255   5.502867336
N       -0.038185872  -0.569838766  -0.420603855
N       -0.610893634  -0.068776994   5.268111619
N        5.911373045   6.465572567  -0.407301394
N        4.770730060   5.654625763   5.384432108
N        5.318323882   0.665081020   0.148025834
N        5.727305468   0.980631796   5.386301121
H        6.616944526   6.618963689   5.735391604
H        5.082726115   4.621778896   0.192556202
H        6.678817680  -0.868286444   5.755839707
H        6.918713999  -0.556965305   0.768679053
H        0.118600504   6.878408595   6.039036601
H       -0.077731940   4.480570977  -0.834300224
H        0.619230759  -1.099131326   6.639083346
H        0.352081466   1.479100733  -0.093222480
H        6.570492755  -0.593890558  -0.996370746
H        4.884887696  -0.906436991   5.844806211
H        6.174239926   5.396572404   1.384144103
H        6.700260683   4.826297263   5.609510139
H        0.897379815   0.370978190   1.215257356
H        0.566841326   0.688039407   6.847256653
H       -1.528197229   5.222145060  -0.074212813
H        1.083445319   5.746298894   7.053898005
H        6.861357324   4.611073702  -0.087053322
H        6.018511803   5.595181169   7.084805176
H        5.470469502  -1.437536812   0.148149015
H        5.835141196  -0.141289332   7.166973797
H       -0.440731933   4.162756091   0.899040109
H       -0.694515026   5.815841182   7.248008996
H       -0.847050985   0.736287536   1.026421569
H        1.489738028  -0.037989381   5.479019581
H       -1.461326202  -0.146047162   5.841265111
H        0.852266244  -0.718331873  -0.929907722
H        0.761258614   4.861283153   4.833282271
H        0.329927220   6.784772577  -0.296648343
H        5.655664371   0.848613944   4.369078816
H        5.928015345   1.490447817   0.037797979
H        4.842460179   5.732732683   4.360577035
H        5.080417568   7.002161180  -0.090335600
H       -0.881488844   4.982950207   4.932434982
H        1.285240335   5.823847227   0.687683757
H       -0.620539245  -0.836276388   4.576337056
H       -0.772280928  -0.416014175  -1.142957002
H        4.192262635   6.451465311   5.709187688
H        5.810900937   6.317062443  -1.419928416
H        6.583610222   1.540709072   5.563539321
H        4.856007756   0.679675050   1.077059359
H       -0.274471397  -1.424753199   0.100881827
H       -0.638063020   0.820688007   4.732634613
H       -0.076395770   6.538265726   1.320243299
H       -0.073545633   3.913620878   5.949243605
H        4.577745657   0.689931289  -0.575584019
H        4.911113907   1.546854680   5.680757547
H        6.758716409   7.048444987  -0.264943081
H        4.261639704   4.780421463   5.606121353
