CRYSTAL
PRIMVEC
11.2820 0 0
0 11.1747 0 
0 0 11.3552
PRIMCOORD
96 1
Pb       2.882162573   2.892974200   2.975816671
Pb       2.947819039   2.724988816   8.593769428
Pb       2.739484252   8.449729702   2.816960364
Pb       2.981877400   8.239957015   8.574413644
Pb       8.458951847   2.941551663   2.915756155
Pb       8.631957576   2.704686545   8.600937708
Pb       8.418921601   8.552815630   2.950613541
Pb       8.624130483   8.226033497   8.729547732
Cl       2.847943845   2.166642342   5.778042608
Cl       2.824429523   2.861366416   0.106524216
Cl       2.668425398   8.649001241   5.677596263
Cl       3.096261038   8.308692489  -0.001781359
Cl       8.172667240   2.796622735   5.746790019
Cl       8.752533158   2.926344093   0.064373587
Cl       8.418316756   8.146281198   5.836746337
Cl       8.334954776   8.173804809   0.173434956
Cl       2.413889237   0.111454090   2.510998790
Cl       3.573684022  -0.093384145   8.866298636
Cl       3.205973253   5.691312161   2.795053570
Cl       2.189411990   5.475237520   8.371449698
Cl       9.146188190   0.165525438   2.885719962
Cl       8.262224687  -0.124033855   8.444948497
Cl       7.840058604   5.742569832   3.081261152
Cl       9.323222260   5.456416098   8.448865474
Cl       5.678175777   2.341482326   2.653918486
Cl       5.788872333   3.163348275   8.456916599
Cl       5.554506264   8.899053726   2.687396526
Cl       5.811126985   7.537503768   8.724345543
Cl       0.058522630   3.120636416   2.768283909
Cl       0.164741118   2.145526988   8.876192428
Cl      -0.077161937   8.174884333   3.201282052
Cl       0.172142275   8.645070144   8.566667442
C        5.235847095   5.468946081   5.571093361
C        5.757009030   5.076175953  -0.194294120
C        5.740905424  -0.274901319   5.286344019
C        6.274158186   0.113801689  -0.227926686
C        0.107110399   5.300844765   5.342958808
C        0.118599403   5.972739455   0.442553272
C       -0.586711017  -0.011748497   6.102094249
C       -0.134039752  -0.702582939   0.085959226
N        0.170317290   4.720232309  -0.364398546
N        0.060101018   6.591824033   6.081221365
N        0.069140169   0.734440379   0.409300873
N        0.518541117  -0.057724079   5.102289423
N        5.671621292   6.235480161   0.734298481
N        6.537780558   5.550848135   6.286957774
N        4.985694695   0.022115163   0.508504608
N        5.775469659   0.503654865   6.554277645
H        5.432128592   5.241513834   4.518946359
H        6.712637602   5.124022825  -0.725393184
H        6.610226490   0.004238060   4.679864137
H        6.217252878   0.954837104  -0.927388744
H        1.022286313   4.768798234   5.628219452
H        0.993165029   6.585444458   0.195374655
H       -1.241833856  -0.873165271   5.937274458
H        0.737882931  -1.066682863  -0.466076066
H        6.430998032  -0.819861606  -0.775917311
H        4.818050060  -0.034746590   4.748283073
H        4.931434414   5.138428776  -0.908862701
H        4.721632193   6.433935417   5.655107203
H       -1.033533336  -0.798644639  -0.530443619
H       -1.149500811   0.915694659   5.953670395
H        0.132317057   5.698604552   1.502174174
H        0.101042144   5.513053733   4.270371639
H        5.689190714   4.153593744   0.393219666
H        4.632283915   4.678782564   6.033498710
H        7.081661120   0.270548274   0.496628982
H        5.772302811  -1.341845372   5.529277028
H       -0.805536310   6.510042789   0.200698845
H       -0.772749355   4.708425494   5.621407874
H       -0.254690795  -1.258132910   1.022358880
H       -0.157895810  -0.050623756   7.107403091
H        0.142887382  -0.025500762   4.144244390
H        0.160400318   1.295226486  -0.461117031
H        0.850316022   7.211243268   5.826981859
H        1.011239382   4.155296317  -0.136423298
H        5.791344871   1.516308383   6.384352678
H        4.203759414  -0.097711118  -0.152719201
H        7.143512144   6.292574626   5.888415907
H        5.723307523   7.124200961   0.222359524
H        0.107404027   6.440059517   7.098593591
H        0.203385943   4.926549512  -1.372634973
H        1.080171557  -0.923488529   5.200694457
H        0.921043048   0.851322717   0.984811338
H        7.052123111   4.651768162   6.225552735
H        6.445165256   6.211146413   1.427336924
H        6.625675238   0.279224313   7.115596516
H        4.836093873   0.871745685   1.077099651
H       -0.719903234   1.104184937   0.956944823
H        1.179086788   0.733221799   5.226767799
H       -0.667945603   4.131983371  -0.191459337
H       -0.818147650   7.106331150   5.884524666
H        5.001765779  -0.782150550   1.166374534
H        4.957097802   0.301432996   7.162036595
H        4.786004894   6.214873383   1.271491030
H        6.388947559   5.796008079   7.280122832
