CRYSTAL
PRIMVEC
11.2820 0 0
0 11.1747 0 
0 0 11.3552
PRIMCOORD
96 1
Pb       2.833399269   2.864664107   3.179328120
Pb       2.884907524   2.707054925   8.866539325
Pb       2.990767107   8.495928653   3.009247970
Pb       2.943121480   8.197353001   8.678190868
Pb       8.398713487   3.045823466   2.962819699
Pb       8.557932131   2.718401284   8.618046347
Pb       8.601853922   8.576142669   2.572457902
Pb       8.603617882   8.323254991   8.337056767
Cl       3.138102955   3.303309687   6.026900405
Cl       2.450877933   2.274401423   0.353506291
Cl       2.659128582   7.955085798   5.811235650
Cl       3.320644703   8.690914130   0.154464991
Cl       7.807809624   2.927624690   5.801703406
Cl       8.633649943   2.800194538   0.137567351
Cl       8.886672496   8.370153940   5.416003222
Cl       8.222213600   8.924201214  -0.267055929
Cl       3.511463568   0.072495262   3.503524258
Cl       2.849955450  -0.138778767   8.788035877
Cl       2.310396053   5.655775849   2.560549401
Cl       3.278774616   5.464826584   9.460837836
Cl       8.339367744   0.206155598   3.104587500
Cl       8.569081627  -0.059050681   7.781941023
Cl       9.209175714   5.791346089   2.550476133
Cl       8.408857244   5.500871455   8.504565016
Cl       5.561698529   3.389502895   2.659306486
Cl       5.742707120   2.504246782   9.050951702
Cl       5.835235184   8.172760440   2.973762045
Cl       5.753480430   8.248397834   8.252020631
Cl      -0.063745803   2.746858099   3.490017660
Cl       0.095455457   2.963073913   8.616884844
Cl       0.195923767   9.148394367   2.804513537
Cl       0.113421585   8.393708740   8.906431761
C        5.870114868   5.968123751   5.536222426
C        6.350294258   5.721150433  -0.175592105
C        5.159349586   0.009710655   6.454480016
C        5.737611393   0.267151132   0.656568644
C       -0.138573969   5.257529817   6.135697723
C        0.033098443   5.760767403  -0.365037821
C        0.669396211   0.007271014   6.178008101
C       -0.446153795   0.394645657   0.007430067
N        0.059351762   4.490761287   0.412851634
N        0.056606247   6.265476398   5.053995847
N        0.639169461  -0.623627131  -0.067007486
N       -0.532545869   0.088701808   5.298219534
N        5.169108053   5.876761459   0.720483669
N        5.594760678   5.197708560   6.781464698
N        5.694383454  -0.305059608  -0.719472969
N        6.204144392   0.053484362   5.392237689
H        6.845161085   6.458625915   5.630011761
H        7.258303351   5.702920574   0.438056436
H        4.571556924  -0.904907922   6.331868644
H        4.886875736   0.945594871   0.779588397
H        0.721949109   4.580791215   6.147112791
H        0.938174798   6.330529963  -0.129628599
H        1.568261555   0.020821286   5.550279014
H       -0.374930471   1.042058742  -0.872986518
H        6.679842842   0.811780696   0.775089484
H        4.520261759   0.891008912   6.337726134
H        6.374920591   6.565624888  -0.871780979
H        5.082781534   6.717999967   5.415444388
H       -0.308140494   0.985339476   0.919182052
H        0.620134780  -0.922412065   6.755348516
H       -0.863262211   6.320426633  -0.076375173
H       -1.060682254   4.698971656   5.939830343
H        6.247243180   4.778717892  -0.723670917
H        5.869296782   5.268215424   4.692858275
H        5.675860008  -0.555985246   1.376573962
H        5.660850149   0.020796129   7.424566678
H        0.001203967   5.513466454  -1.429880427
H       -0.222318425   5.786729180   7.091433290
H       -1.410413909  -0.123328660   0.031994123
H        0.657111319   0.866469960   6.857862777
H       -0.552751394  -0.686909696   4.617039690
H        1.557393068  -0.175655364  -0.191596022
H        0.146839872   5.819696718   4.131931303
H        0.104292338   4.689608986   1.420847446
H        5.758875839   0.022930485   4.461575341
H        5.738010053   0.459868927  -1.420068655
H        5.548243009   5.826097460   7.596482257
H        5.241342001   6.740416604   1.284855663
H        0.920929596   6.819134390   5.230673206
H        0.878480878   3.897620752   0.183861610
H       -0.531606884   0.968981308   4.746897522
H        0.496898344  -1.273949785  -0.865639369
H        6.343932929   4.508924492   6.942024571
H        5.114935160   5.076534361   1.382010971
H        6.863898137  -0.731676854   5.463654143
H        4.819090573  -0.831030740  -0.861685783
H        0.660517083  -1.184814353   0.804798360
H       -1.395093588   0.042600008   5.869047331
H       -0.801722473   3.929523051   0.243126640
H       -0.745123949   6.924364101   5.017627267
H        6.487652692  -0.959771185  -0.852238241
H        6.766935811   0.924671315   5.461123011
H        4.301579923   5.909525348   0.160654273
H        4.703500517   4.669806829   6.689112701
