CRYSTAL
PRIMVEC
11.2820 0 0
0 11.1747 0 
0 0 11.3552
PRIMCOORD
96 1
Pb       2.760325332   2.804801921   2.884640574
Pb       2.774818781   2.828005150   8.685204852
Pb       2.953743798   8.358390549   2.945798722
Pb       2.974168682   8.328875927   8.565557416
Pb       8.396401432   2.837531229   2.905730190
Pb       8.406807514   2.736308153   8.658685703
Pb       8.656467165   8.428837946   2.893247235
Pb       8.638732467   8.417181429   8.627281550
Cl       2.644668300   2.636114861   5.797958038
Cl       2.370425243   3.401294753   0.103147033
Cl       3.116636664   9.020419766   5.749897211
Cl       3.175532673   7.996588333   0.065950834
Cl       8.295528260   3.211476248   5.790239504
Cl       8.731425564   2.713836385   0.095403217
Cl       8.271320810   8.169645403   5.763991606
Cl       8.630823710   8.868090094   0.072121190
Cl       3.254008951  -0.037653076   2.226643581
Cl       3.231191031  -0.050783579   9.216164474
Cl       2.303773226   5.573342894   3.279217448
Cl       2.255718779   5.563785322   8.241368805
Cl       7.994377008   0.014450911   3.204934134
Cl       7.735905308  -0.073641239   8.336841329
Cl       9.186229084   5.599063411   2.781601232
Cl       9.077096192   5.535377987   8.739508978
Cl       5.558595779   3.425670393   2.634836590
Cl       5.585487787   3.568751247   8.783429785
Cl       5.795035906   8.229019313   2.863021241
Cl       5.796787770   7.912296531   8.698577330
Cl      -0.063184388   2.512311443   3.247817793
Cl      -0.056972376   2.407293790   8.305160732
Cl       0.173032292   9.033881015   2.987147864
Cl       0.168967062   9.085131936   8.597005533
C        5.035791225   5.664784757   5.552527356
C        6.541965754   5.804398993   0.240362449
C        5.252521934   0.611764263   5.675233151
C        6.136659696   0.429307689   0.125134531
C        0.016938900   6.310005770   5.794126474
C        0.259699954   6.386095951   0.088134678
C       -0.672780862   0.003256413   5.670074378
C       -0.135706411   0.434183912   0.131901519
N       -0.412176321   5.061019864   0.078428139
N       -0.017760813   4.821829365   5.729624521
N        0.751785307  -0.763207731   0.143551013
N        0.729388452   0.063458028   6.173976735
N        5.138761441   5.329591236   0.075904493
N        6.320370333   5.667719049   6.309638382
N        5.588628945  -0.955935122   0.076359651
N        6.071237391  -0.629844518   5.651818494
H        5.257443459   5.624256720   4.481045809
H        6.751286636   6.553056012  -0.528675993
H        4.639260717   0.639385483   4.768179617
H        7.222878371   0.365327702   0.226548840
H       -0.599394728   6.700886381   4.979809809
H        0.884763497   6.458797829  -0.807249356
H       -0.659682063   0.103254027   4.581948642
H        0.103031397   1.044300742  -0.745340455
H        5.698104797   0.942008130   0.988320770
H        5.928170474   1.474746024   5.709082374
H        7.208452244   4.942283784   0.128203983
H        4.484056128   6.580417311   5.793295978
H        0.026625755   1.002446132   1.054046936
H       -1.233482685   0.828907778   6.120979224
H        0.878135836   6.446880625   0.989324823
H        1.056163153   6.631915627   5.677988724
H        6.645427729   6.235877813   1.239893255
H        4.450820582   4.786863260   5.848983705
H        5.865493695   0.935457607  -0.807936114
H        4.611476992   0.590581053   6.562576988
H       -0.510417085   7.166731761   0.091706041
H       -0.375823146   6.619484958   6.767483406
H       -1.172508886   0.086253368   0.081073248
H       -1.106467575  -0.959522580   5.961576653
H        1.190741833   0.969163053   5.949740262
H        1.743071611  -0.493578393   0.204832660
H        0.337444742   4.478798292   4.822963390
H        0.298436183   4.306599858   0.077129212
H        6.708887511  -0.624238002   4.829781871
H        5.771498745  -1.474250191   0.953663708
H        6.893949628   6.509097825   6.094718054
H        5.046986353   4.815281236  -0.820984952
H       -0.977040831   4.448602127   5.840360933
H       -1.013979135   4.966011485  -0.759094936
H        1.319006949  -0.695511595   5.790401056
H        0.615933626  -1.316824023  -0.722839970
H        6.898858272   4.831033977   6.088979823
H        4.461662690   6.113842456   0.089858829
H        5.463286853  -1.458375455   5.598675157
H        5.997294776  -1.495069855  -0.699903736
H        0.542477650  -1.349172076   0.976473846
H        0.740254683  -0.042805713   7.198074257
H       -1.008931685   4.962386517   0.920344013
H        0.567425188   4.408106576   6.469980442
H        4.568960898  -0.940210638  -0.061944694
H        6.655617718  -0.688448130   6.508043387
H        4.914050130   4.670792865   0.843719447
H        6.147963165   5.658466366   7.323820426
