CRYSTAL
PRIMVEC
11.2820 0 0
0 11.1747 0 
0 0 11.3552
PRIMCOORD
96 1
Pb       3.107913128   2.853901998   2.858845532
Pb       2.757093855   2.814542959   8.488681941
Pb       3.102168636   8.409122171   3.064690965
Pb       2.712704193   8.285916901   8.809646545
Pb       8.765166268   2.834919696   2.847462087
Pb       8.492041372   2.743857132   8.509851677
Pb       8.700975401   8.373759746   3.037726896
Pb       8.449792231   8.444101890   8.804598975
Cl       3.153151917   2.533808204   5.658862526
Cl       3.051731121   2.731033541  -0.036855496
Cl       2.982243820   8.377199593   5.949754452
Cl       2.822124043   8.565992721   0.253864475
Cl       8.669083401   2.764989121   5.689456568
Cl       8.634003147   2.965885806   0.001828878
Cl       8.771621127   8.286843065   5.947056934
Cl       8.463028426   8.083315297   0.253969226
Cl       3.706099811   0.041403298   2.673271214
Cl       2.521133785  -0.032252644   8.845723586
Cl       2.547226931   5.643722913   3.216816368
Cl       3.576579537   5.561335364   8.597692651
Cl       8.374038690   0.015276492   2.916901057
Cl       8.962770046  -0.004211692   8.437230110
Cl       9.521268871   5.623742867   2.987184836
Cl       7.878220641   5.611626524   8.686958866
Cl       5.936663478   3.303515637   2.557696116
Cl       5.609010910   2.201203902   8.678655012
Cl       5.918881522   7.897753985   3.458921084
Cl       5.575658637   8.891729020   8.699457947
Cl       0.302767540   2.080230999   3.012898784
Cl      -0.017684039   3.214648372   8.839862630
Cl       0.285978561   9.046603173   3.142952773
Cl      -0.061347185   7.653040640   8.667099896
C        5.642857971   5.017559760   5.651327388
C        5.282810916   6.052856587   0.294896729
C        6.108555687  -0.102537483   5.539420567
C        6.452638249   0.105301740   0.126251456
C        0.341985809   5.211887421   6.035986470
C        0.559253292   5.460984120   0.327007799
C        0.395312505   0.108731585   6.151161324
C       -0.279352557  -0.124673411  -0.138899619
N       -0.786011861   5.570285077  -0.300403831
N        0.233901824   6.550442714   5.390455489
N        0.992753398   0.118428514   0.597707849
N       -0.893029415   0.019535680   5.414268815
N        5.789944466   4.778140845  -0.285142657
N        5.824470482   6.355796702   6.281968294
N        5.034933071  -0.045231106  -0.299140764
N        4.837016116  -0.074198750   6.317815787
H        6.552155736   4.764484117   5.097096996
H        5.112699581   6.763225169  -0.520424646
H        6.715647151  -0.946866368   5.885008621
H        6.523279346   0.963309845   0.802326516
H        1.198761125   4.686556664   5.598843048
H        0.435715319   5.135877209   1.364289704
H        0.947925415  -0.826392510   6.004065968
H       -0.037646915  -0.523123191  -1.129560805
H        7.069413047   0.265645641  -0.765208446
H        6.640073821   0.841397040   5.706917528
H        6.029578004   6.443032966   0.994429210
H        4.789131319   5.072021075   4.967363635
H       -0.813955203   0.826631211  -0.240539139
H        0.180946595   0.263072904   7.212738905
H        1.040782788   6.445325620   0.302253272
H       -0.582327154   4.656006542   5.840898840
H        4.345883933   5.845320264   0.824864690
H        5.456324687   4.281468122   6.440872073
H        6.763068414  -0.805803039   0.646759820
H        5.867582431  -0.216769562   4.477683881
H        1.146031357   4.729853003  -0.238977905
H        0.476029088   5.355272883   7.111984888
H       -0.881546991  -0.840033921   0.432972569
H        0.966696883   0.949560889   5.742935206
H       -1.459907886  -0.780368857   5.741577550
H        1.595413205   0.787209781   0.091930152
H        0.067620112   6.446760108   4.377496201
H       -1.379870545   6.263531377   0.186497105
H        5.018490790   0.038588107   7.324147944
H        4.723947097   0.785537554  -0.824587368
H        5.986895898   7.069828598   5.546235018
H        6.623454322   4.944679856  -0.875900113
H        1.095113671   7.105736440   5.522867782
H       -1.289686839   4.661501157  -0.285409111
H       -0.732764290  -0.106522181   4.404651105
H        1.528925111  -0.758290978   0.712880438
H        6.618019001   6.331960565   6.946141076
H        5.079737037   4.339007933  -0.885964596
H        4.291294663  -0.944694755   6.196561045
H        4.425145753  -0.156479498   0.532257798
H        0.803406549   0.532289443   1.533108793
H       -1.459531091   0.882468464   5.535289486
H       -0.699304688   5.885350473  -1.279467608
H       -0.561266672   7.092138775   5.775357765
H        4.927059805  -0.859406310  -0.926083113
H        4.242782043   0.730602178   6.024773544
H        6.024907739   4.112854150   0.478176292
H        4.987029058   6.613938222   6.822653344
