CRYSTAL
PRIMVEC
11.2820 0 0
0 11.1747 0 
0 0 11.3552
PRIMCOORD
96 1
Pb       2.788628054   2.969674950   2.894740368
Pb       2.889974688   2.872883367   8.500276771
Pb       2.978291374   8.529863977   2.971724616
Pb       2.998024233   8.421603897   8.624533494
Pb       8.332901896   2.703138003   3.063016784
Pb       8.484927351   2.632887744   8.687505471
Pb       8.525053560   8.244413029   3.109855766
Pb       8.557698827   8.349768383   8.783414053
Cl       3.181391501   3.335121590   5.695787690
Cl       2.590124653   2.771321582   0.021111512
Cl       2.710304655   8.187127921   5.813505767
Cl       3.175631051   8.943696619   0.114189027
Cl       8.542420550   2.032227977   5.894421832
Cl       8.583262348   3.080011737   0.212792333
Cl       9.045307022   8.772467330   5.963275975
Cl       8.140266267   7.759519333   0.279120216
Cl       2.487303225   0.161122412   2.786365950
Cl       3.188115771   0.048134313   8.508139102
Cl       3.472909005   5.748307596   2.622119817
Cl       2.212853795   5.637856148   8.720564148
Cl       8.532534598  -0.123497944   2.952144091
Cl       7.814460974  -0.074136118   9.099159130
Cl       7.820234098   5.485927081   3.470254094
Cl       9.133550710   5.520137434   8.481442359
Cl       5.524608817   2.552562931   2.424549738
Cl       5.663196833   2.988333384   9.168696465
Cl       5.777036818   8.669227389   3.676007034
Cl       5.807554763   8.097755801   7.991174419
Cl      -0.117503096   2.893447421   3.002411875
Cl       0.041649493   2.328975288   8.815339683
Cl       0.138470181   8.297856951   3.105679850
Cl       0.147213750   8.755712392   8.943881314
C        6.136578249   5.134700956   6.387134947
C        5.056834658   5.815519305  -0.430807000
C        5.300918419   0.580631199   5.769986900
C        6.146185683  -0.251010792   0.675696055
C        0.094014866   5.364175787   5.232484417
C        0.220646545   5.926384074   0.582113987
C        0.716305413   0.103069308   5.962636152
C       -0.506954752  -0.028408911   0.475324817
N        0.018592641   4.737887542  -0.293894146
N        0.049802640   6.357939664   6.340647295
N        0.704522283  -0.005583239  -0.391374315
N       -0.159994848   0.014747229   4.761660838
N        6.092676730   5.289955529   0.500770122
N        5.227749790   5.864308069   5.463423855
N        5.083686403   0.372150109  -0.158252965
N        6.391786219  -0.408245169   5.991341853
H        6.365198533   4.156899753   5.948778457
H        5.517602657   5.974967454  -1.411498396
H        5.453688845   1.056593300   4.794219181
H        6.426866028  -1.211129017   0.230643354
H        0.910985611   5.632509054   4.553433958
H        1.133075351   6.444973144   0.266109920
H        0.479639578   1.028295427   6.498773632
H       -1.396304382  -0.041779683  -0.166232287
H        5.756540817  -0.393823862   1.687919827
H        5.337498751   1.328755195   6.568896630
H        4.679174661   6.760394077  -0.026423061
H        5.632117150   5.008612029   7.349297626
H       -0.506064674   0.867723704   1.105030573
H        1.759209746   0.098618864   5.631346701
H        0.319210231   5.581473858   1.617045919
H       -0.864573784   5.385297373   4.701450030
H        4.245901007   5.084428208  -0.501734457
H        7.054210051   5.716161551   6.515042687
H        7.007850966   0.420532950   0.694807417
H        4.340605659   0.055073858   5.793966153
H       -0.647676548   6.587714445   0.482226176
H        0.268282135   4.371125088   5.659349309
H       -0.470011671  -0.926689735   1.101676648
H        0.517627887  -0.760668397   6.607271253
H       -0.019107085   0.821339787   4.127596929
H        0.703555103   0.832989793  -1.001879543
H       -0.109099566   7.310537469   5.986090485
H        0.822009037   4.082594150  -0.230877408
H        7.307089874   0.072970738   5.995414318
H        4.286269777  -0.281925757  -0.257874818
H        4.369543363   5.310268011   5.298849736
H        6.864953939   5.980148605   0.600310550
H        0.928199263   6.349372802   6.884985161
H       -0.075601108   5.012241565  -1.280850958
H       -1.154425143   0.007189565   5.024330879
H        0.715447482  -0.837431535  -1.015545874
H        5.689940422   6.024282694   4.554806621
H        6.504401931   4.405290314   0.164467378
H        6.385747020  -1.123571026   5.237060643
H        5.432642671   0.606433485  -1.098594630
H        1.559344211  -0.006732881   0.178755691
H        0.016339568  -0.851570455   4.219195152
H       -0.842894046   4.212738616  -0.038363735
H       -0.718719169   6.130575229   7.007914405
H        4.744737042   1.245188881   0.271584983
H        6.284928389  -0.910688335   6.885749235
H        5.688728855   5.110642701   1.431617682
H        4.956085732   6.783235866   5.844794270
