CRYSTAL
PRIMVEC
11.2820 0 0
0 11.1747 0 
0 0 11.3552
PRIMCOORD
96 1
Pb       2.874635645   2.662790809   2.859661584
Pb       2.865679894   2.683146091   8.528734429
Pb       2.920432773   8.314618121   2.905168693
Pb       2.879235346   8.298237433   8.537948104
Pb       8.456364001   2.818903229   3.003140406
Pb       8.617377263   2.854768161   8.738201383
Pb       8.403007331   8.538397962   3.056571666
Pb       8.491535892   8.380502249   8.757942073
Cl       2.950684609   2.046940278   5.683228306
Cl       2.753533574   3.370192501   0.008156755
Cl       2.682586903   8.792805899   5.732803138
Cl       2.747582790   7.697873128   0.077748594
Cl       8.337981998   3.331822787   5.858655763
Cl       8.969764175   2.889666174   0.192112352
Cl       8.191855771   8.093568320   5.918757592
Cl       8.618805261   8.913847080   0.230416175
Cl       2.681045729  -0.109928809   2.303774728
Cl       2.959247730  -0.141220851   9.407123940
Cl       2.386985171   5.468544882   3.314262288
Cl       3.367812569   5.445071716   8.040158754
Cl       8.527688543   0.087751465   3.782058570
Cl       8.183642597  -0.006001768   8.468356055
Cl       8.875882419   5.652651774   2.983985294
Cl       7.960410229   5.556103352   9.004341499
Cl       5.639721854   2.852286627   3.216574887
Cl       5.710093500   2.592421251   8.765857950
Cl       5.673285985   8.661252710   2.408003973
Cl       5.661867819   8.282486603   8.888494958
Cl       0.008538744   2.639867338   3.201537398
Cl       0.086460702   3.221180090   8.143248865
Cl       0.027962800   8.539104840   2.913727037
Cl       0.048931039   8.455601806   8.777306623
C        5.309385310   5.917007090   5.112172561
C        6.120012607   5.488856309   0.629238797
C        5.506828421  -0.429091338   5.910589278
C        5.996745171   0.622831131   0.585361921
C       -0.017868157   6.203568216   6.338621412
C       -0.153719532   5.829037923  -0.343858216
C       -0.156801575  -0.108674834   6.231037232
C       -0.196247133   0.327798249  -0.011850521
N        0.059377256   5.146040148   0.961865638
N       -0.089612565   5.070592233   5.373626947
N        0.479326787  -0.995354506   0.077905798
N        0.498332998  -0.061687610   4.894341359
N        5.120492249   5.557274738  -0.473664508
N        6.146907332   5.681867764   6.318176728
N        5.869124135  -0.390902226  -0.498484586
N        6.150758659   0.913719662   5.938280084
H        5.969866401   6.094716910   4.255544239
H        6.810219484   4.661722217   0.426861072
H        5.619098001  -0.848040964   4.903212890
H        5.854794416   1.616108068   0.146522788
H       -0.922336823   6.188581879   6.954759290
H        0.673496625   5.571648642  -1.013127490
H       -1.229636943  -0.275559381   6.089960793
H        0.201539712   0.863302125  -0.881861531
H        6.997557603   0.533248332   1.023000070
H        4.447265051  -0.307726463   6.151401256
H        5.589829099   5.325864712   1.574187066
H        4.674569523   6.791480627   5.300194184
H        0.009068042   0.892731781   0.904386302
H        0.016011794   0.849423460   6.735979515
H       -0.176793221   6.908119708  -0.170432628
H        0.049542808   7.141343789   5.777421774
H        6.670817744   6.435313308   0.658942272
H        4.685645173   5.036669294   4.934541363
H        5.234641105   0.416223810   1.343502314
H        6.005320263  -1.070741931   6.645123792
H       -1.109088859   5.487528232  -0.757431663
H        0.870150268   6.061419948   6.963007994
H       -1.271406207   0.159561161  -0.123675206
H        0.283461157  -0.929974462   6.805296919
H        0.154959990   0.738499231   4.330884781
H        1.499820651  -0.878873054   0.135317428
H       -0.925907509   5.143770044   4.769560649
H        0.954606422   5.410959745   1.405820817
H        5.718878101   1.548386995   5.246009574
H        6.571695964  -0.239424691  -1.247484680
H        6.780945930   6.490285132   6.472519714
H        4.512583587   4.716811963  -0.491603707
H       -0.139003760   4.177038683   5.886509032
H        0.061460883   4.125368357   0.846572766
H        0.334182029  -0.927717339   4.347622511
H        0.276938471  -1.578513480  -0.759917187
H        6.756544696   4.847176270   6.210770615
H        5.594643039   5.651837880  -1.382532131
H        7.149590788   0.844056064   5.698237813
H        4.929111020  -0.355668006  -0.944199340
H        0.177415802  -1.517807305   0.920099900
H        1.515382093   0.059178769   4.997186474
H       -0.708700917   5.371142461   1.627686347
H        0.740894232   5.060549782   4.749414708
H        6.019124933  -1.338313139  -0.126590293
H        6.068471525   1.359778546   6.871509432
H        4.479305824   6.367444591  -0.354654951
H        5.542094093   5.556178469   7.146265252
