CRYSTAL
PRIMVEC
11.2820 0 0
0 11.1747 0 
0 0 11.3552
PRIMCOORD
96 1
Pb       2.856207563   2.695012388   2.997015446
Pb       3.156389220   2.754899768   8.797119407
Pb       2.719797579   8.330429702   2.858377096
Pb       3.088886138   8.265688604   8.569318890
Pb       8.504498138   2.897310028   2.969791922
Pb       8.709803462   2.755382735   8.693262095
Pb       8.400941086   8.523889708   2.827794384
Pb       8.705740479   8.513051819   8.477319013
Cl       3.145996574   2.286035366   5.898028973
Cl       2.946640714   3.230617243   0.214573301
Cl       2.445675215   8.548604213   5.742531234
Cl       3.204958100   7.939062678   0.027006540
Cl       8.056051913   3.023371119   5.880478449
Cl       8.864746936   2.590804198   0.165074396
Cl       8.531282164   8.103029357   5.654499647
Cl       8.426377739   9.051964126  -0.049168066
Cl       2.620582550  -0.080792448   2.453398620
Cl       2.890621428  -0.085223908   8.875312283
Cl       2.606564255   5.513647356   3.365029146
Cl       3.696325329   5.504297165   8.087647290
Cl       8.433874146   0.121754526   3.210613163
Cl       9.331742945   0.041595002   8.104728043
Cl       8.304064245   5.711697737   2.429587595
Cl       8.395018792   5.627255276   8.808537514
Cl       5.693359666   2.901900619   2.907059666
Cl       5.945784731   2.050961444   8.997080645
Cl       5.595611250   8.383542732   2.618872952
Cl       5.893062007   8.923548622   8.169428466
Cl       0.052708045   2.671284969   2.959893926
Cl       0.319337788   3.089961696   8.241349289
Cl      -0.052689019   8.333920066   2.273126292
Cl       0.249595426   7.802282471   8.701745207
C        5.441186673   5.800147669   5.143915293
C        5.879924953   5.375451371  -0.210397248
C        5.598230512  -0.481364358   5.099506656
C        5.638535997   0.392060070   0.685921743
C       -0.321347472   5.585759974   5.332854631
C        0.311407360   5.249510469   0.102062236
C       -0.132044904  -0.023829777   5.219768846
C        0.350834144   0.209026131  -0.300130341
N       -0.913012792   6.094649296  -0.009704853
N        0.813159537   5.605507894   6.300308949
N       -0.424667462   0.114741321   0.967309708
N        0.787122760   0.057898349   6.388850352
N        5.158497571   5.504665768   1.086030641
N        6.385782908   5.755905865   6.293322662
N        5.477847676  -0.747285246  -0.264191418
N        5.825014051   0.523876118   6.175561934
H        6.024452278   5.825842518   4.217264994
H        6.950965004   5.483693714  -0.020538916
H        6.434936725  -1.186249576   5.099242329
H        4.729756320   1.000996570   0.659806528
H       -0.178554884   4.742440374   4.648457056
H        0.811126462   5.479791942   1.049974549
H        0.471254978  -0.102161337   4.308282037
H        1.415325792   0.170855536  -0.053468529
H        6.500252897   0.988738411   0.368075908
H        5.536864642   0.042568179   4.140393645
H        5.524477956   6.158343948  -0.888450464
H        4.821542359   6.698930356   5.232427954
H        0.103696015   1.155395077  -0.794399190
H       -0.748220347   0.879078528   5.191006308
H        0.968877490   5.478663798  -0.742623818
H       -0.324590336   6.527763281   4.774325792
H        5.669685589   4.385232118  -0.630822932
H        4.810354228   4.906865629   5.174986186
H        5.800018584  -0.017093899   1.687438170
H        4.661481962  -1.008358152   5.314545863
H        0.008047196   4.198059532   0.081745631
H       -1.253477217   5.476672877   5.897602953
H        0.077262986  -0.634363865  -0.943879889
H       -0.772654522  -0.904215983   5.341945866
H        1.433790016   0.865813890   6.318535078
H       -0.191357967   0.894732155   1.612564559
H        1.711225912   5.691336118   5.804779649
H       -0.673105393   7.093103922   0.015627550
H        6.663727219   1.107360565   6.008902038
H        5.262306374  -0.407466675  -1.212335847
H        7.040656041   6.560373822   6.263817723
H        5.356001564   6.415532889   1.542546674
H        0.816596286   4.737989404   6.877066033
H       -1.563232515   5.916485093   0.783432182
H        1.372306805  -0.796956233   6.435955800
H       -0.228724046  -0.781765903   1.452983970
H        6.954962322   4.885332418   6.267216117
H        5.429605268   4.737550762   1.734703884
H        5.928333544   0.061974267   7.090726581
H        4.718292351  -1.391273888   0.019502483
H       -1.436068294   0.162339995   0.791852560
H        0.237346819   0.147491773   7.258091582
H       -1.431673293   5.909860216  -0.891104577
H        0.724948589   6.402244702   6.959253877
H        6.355275963  -1.300834974  -0.310588335
H        5.012402643   1.170614218   6.233321199
H        4.142582214   5.432481355   0.945500082
H        5.855938851   5.774745026   7.179265710
