CRYSTAL
PRIMVEC
11.2820 0 0
0 11.1747 0 
0 0 11.3552
PRIMCOORD
96 1
Pb       3.023650229   2.851620456   2.912726387
Pb       2.808024387   2.912499788   8.482970946
Pb       2.923946404   8.357277152   2.947926694
Pb       2.738692473   8.453115800   8.655483662
Pb       8.727139712   2.638533200   2.957471158
Pb       8.531675909   2.836351912   8.710499287
Pb       8.627304327   8.366671096   2.926411276
Pb       8.431152760   8.435520090   8.746111032
Cl       3.686895607   2.912865722   5.725373646
Cl       2.712055199   2.668209841   0.063951045
Cl       3.006691973   8.799087374   5.819638029
Cl       2.393091068   8.553862216   0.178705171
Cl       8.300414324   2.612024641   5.809282985
Cl       9.017804619   3.210758800   0.170622774
Cl       8.537858471   8.584114433   5.784417113
Cl       9.035166407   7.951271065   0.121548873
Cl       2.423025678   0.035311647   3.154830339
Cl       2.897634425   0.090187970   8.817546795
Cl       3.368143804   5.612152109   2.358352080
Cl       3.018781746   5.665374152   8.723357212
Cl       9.667000754  -0.091101609   2.705241030
Cl       8.025904035   0.063273677   9.117226544
Cl       8.315619303   5.504380841   3.329523395
Cl       8.284271283   5.634331493   8.209566692
Cl       5.853727791   2.215232225   2.598570882
Cl       5.663968269   3.104190095   9.002862598
Cl       5.773628269   8.700231320   3.102079550
Cl       5.587264066   8.313821551   9.166370713
Cl       0.211636664   3.386503036   3.345907292
Cl       0.007772626   3.048820397   8.114174909
Cl       0.126135213   7.732727898   3.337171035
Cl      -0.049972799   8.428859019   8.201397801
C        5.306137766   6.265361963   5.759531384
C        6.342569879   5.598004310   0.596181755
C        5.875307330  -0.000435829   6.401211681
C        5.425200440  -0.495105219   0.578597805
C        0.729804103   5.685093296   6.113664915
C        0.485393194   5.561552213  -0.350229167
C        0.126829404   0.353055787   6.171739766
C       -0.319216854   0.073281154  -0.655406677
N       -0.189628065   5.564574871   0.976436779
N       -0.715159781   5.531805829   5.783241105
N        0.742540749   0.110544916   0.388035333
N        0.082706049  -0.921568724   5.403807259
N        5.230702821   5.641521693  -0.392154104
N        6.179736656   5.059488016   5.828749173
N        5.371877356   0.521703577  -0.505078392
N        5.239512669   0.034928005   5.051866619
H        4.691931086   6.193430192   4.854887391
H        7.293423238   5.654470916   0.057738386
H        5.493001105  -0.874128153   6.941395103
H        5.400470422  -1.488416761   0.120555591
H        1.272251355   4.840118489   5.675046089
H        1.565572695   5.578723894  -0.186111146
H        0.920152030   0.983246004   5.753566638
H        0.159515677   0.045314671  -1.639633242
H        4.565157340  -0.350087016   1.241184622
H        5.618210533   0.922381769   6.932670457
H        6.276838028   4.660647253   1.158764206
H        5.942720845   7.155662126   5.712558935
H       -0.941638393   0.967063632  -0.546769037
H        0.340427727   0.118738848   7.219373968
H        0.168954006   6.454570351  -0.901534098
H        0.832435948   5.682198006   7.200611458
H        6.235774237   6.447216486   1.279546441
H        4.673089911   6.285966388   6.652539310
H        6.350028728  -0.351343054   1.144610685
H        6.959669864  -0.073547981   6.276062847
H        0.193864507   4.652431489  -0.888103829
H        1.083690737   6.633356422   5.698129787
H       -0.924787814  -0.825397755  -0.496774548
H       -0.839683731   0.861319648   6.078866698
H        0.980745902  -1.434363456   5.486890320
H        1.362008324   0.938413430   0.280355470
H       -1.085461742   4.651511767   6.172663383
H        0.028577983   6.415234426   1.526162079
H        4.213667704   0.064166809   5.117889988
H        4.537582749   0.392747698  -1.113189708
H        6.811899525   5.011125903   5.010001602
H        5.278003024   4.834835582  -1.046870780
H       -0.877133857   5.516003418   4.765448036
H        0.078943786   4.752426154   1.563670782
H       -0.103248705  -0.736318357   4.405335411
H        1.338953945  -0.741573528   0.341176841
H        5.607560386   4.197690456   5.862213159
H        5.268221678   6.505646343  -0.971642506
H        5.474897797  -0.813361093   4.494566237
H        6.213635642   0.452732029  -1.115085765
H        0.313280883   0.139131329   1.326474796
H       -0.675463937  -1.540959834   5.744253368
H       -1.209965764   5.525149070   0.860956224
H       -1.274294949   6.304336855   6.175129568
H        5.327410776   1.473327670  -0.121918930
H        5.531480899   0.860705630   4.498768413
H        4.324738036   5.612372159   0.097305529
H        6.786801933   5.093997869   6.671226117
