CRYSTAL
PRIMVEC
11.2820 0 0
0 11.1747 0 
0 0 11.3552
PRIMCOORD
96 1
Pb       2.988346748   2.729964750   2.857042638
Pb       2.742795529   2.653596343   8.589187474
Pb       3.002930205   8.400626412   2.945025069
Pb       2.851297754   8.257960734   8.573955553
Pb       8.508761031   2.955499884   3.001452472
Pb       8.421294982   2.792886678   8.688280391
Pb       8.653558278   8.482756335   3.029674426
Pb       8.605433042   8.482505135   8.701108784
Cl       2.786275585   2.627340677   5.698155744
Cl       2.343486174   2.745375956   0.057573876
Cl       3.460828035   8.135250531   5.772299691
Cl       2.991212438   8.195847659   0.102917296
Cl       8.593219623   2.665926241   5.829212370
Cl       8.571205370   3.220281607   0.156847170
Cl       8.345280478   8.616106811   5.861522802
Cl       8.340297526   8.090064824   0.207863637
Cl       2.254052330  -0.027212758   3.087859539
Cl       3.124317314  -0.137211374   8.354985767
Cl       3.219774724   5.550728719   3.028257296
Cl       2.440612929   5.448265932   8.350270735
Cl       9.359985324   0.167656920   2.810193656
Cl       8.337710852   0.058616043   9.521285804
Cl       7.900410499   5.751983313   3.328410542
Cl       8.455721133   5.639846357   8.426890568
Cl       5.773455821   2.184641269   3.138793194
Cl       5.577654450   2.996163645   9.009455035
Cl       5.818657111   9.174389275   2.930428244
Cl       5.711424361   8.068377248   8.838723619
Cl       0.151328626   3.414795818   3.058930148
Cl      -0.058166142   2.295515531   8.504625212
Cl       0.200744054   7.727543583   3.103427956
Cl       0.076205516   8.443227809   8.448256669
C        5.400948827   4.933824609   5.998874580
C        5.470840896   5.490815413   0.674418848
C        5.949117713   0.239271933   6.249803864
C        4.885639334   0.236809671   0.102404626
C       -0.400518538   5.487773513   6.134550468
C       -0.152839074   5.816314242  -0.350577620
C        0.127601369  -0.359343871   6.057623978
C        0.366568660  -0.472816346  -0.184901105
N        1.018036262   5.656111708   0.558151056
N        0.894373100   5.568517676   5.400907875
N       -0.312211114   0.806317333   0.161084781
N        0.000089267   0.933968122   5.330933985
N        6.314388824   5.545184198  -0.547536904
N        6.280184389   6.135060588   6.045779668
N        5.831154881  -0.901575785  -0.060749858
N        4.738536945  -0.038944066   5.425278057
H        6.036740180   4.044701335   5.920472440
H        4.420182359   5.530544036   0.372722498
H        6.657325675  -0.586521269   6.115996268
H        4.805709363   0.766668542  -0.851139564
H       -1.212455036   5.434664036   5.400485420
H        0.206313194   5.803158085  -1.385094347
H       -0.815552864  -0.909748840   5.966455399
H        0.837770232  -0.367292895  -1.168535633
H        5.281939455   0.901806281   0.878268807
H        5.641259148   0.322289149   7.297386402
H        5.712423671   6.345863164   1.314315954
H        4.751329312   5.015821692   5.121371544
H       -0.387127454  -1.267994872  -0.213216544
H        0.349164672  -0.149022935   7.107744507
H       -0.639712510   6.771253343  -0.127504691
H       -0.501179129   6.381221520   6.758410164
H        5.683636149   4.557976747   1.209443097
H        4.803639955   4.898109939   6.915374897
H        3.909094141  -0.159345767   0.401979063
H        6.394137366   1.175187919   5.897256125
H       -0.849417042   4.989875273  -0.172221471
H       -0.392721774   4.589940461   6.761926506
H        1.117370351  -0.685266384   0.583600994
H        0.942998263  -0.933378039   5.603004489
H       -0.775815113   1.509195604   5.711085555
H       -1.036920885   1.028629118  -0.535650020
H        0.904697432   6.397941942   4.779678656
H        1.707414018   6.419112689   0.411284750
H        4.291064267  -0.935026983   5.693787667
H        6.747742030  -0.577205038  -0.424864264
H        6.854093279   6.192059329   5.179641710
H        6.141807981   6.406694958  -1.101109948
H        1.010061262   4.750218938   4.780594226
H        1.490542386   4.746247190   0.397637166
H       -0.214058934   0.772584903   4.334027056
H        0.367683376   1.585097823   0.184041064
H        6.937331417   6.089869483   6.848235343
H        6.118370880   4.728674600  -1.163710018
H        4.991749234  -0.104945533   4.428871516
H        5.489682990  -1.603415725  -0.738797536
H       -0.784957827   0.725184272   1.086240037
H        0.872439509   1.487208597   5.394201322
H        0.737222691   5.689632238   1.548029813
H        1.683424749   5.612077776   6.064482226
H        5.978067901  -1.381964170   0.849839094
H        4.038871720   0.716640833   5.529275408
H        7.314399671   5.524578211  -0.314728075
H        5.725504677   6.997588966   6.130360043
