CRYSTAL
PRIMVEC
11.2820 0 0
0 11.1747 0 
0 0 11.3552
PRIMCOORD
96 1
Pb       2.935418592   3.024848944   3.034148169
Pb       2.994796601   2.718548550   8.731676348
Pb       2.732306587   8.552483676   2.991690250
Pb       2.874082064   8.403146805   8.605277021
Pb       8.498278189   2.956946382   2.930457874
Pb       8.538735821   2.631546594   8.659670530
Pb       8.424954201   8.430210313   2.728990599
Pb       8.522593503   8.209067484   8.471939994
Cl       2.933632432   2.633821879   5.798245028
Cl       2.305801809   3.174116762   0.102613849
Cl       2.531764365   9.050387691   5.791596148
Cl       3.242818097   8.054330320   0.109482871
Cl       8.506266781   2.553341224   5.758495103
Cl       9.117861598   3.168780543   0.078538125
Cl       8.327912461   8.485303571   5.605682118
Cl       8.157075078   7.785116546  -0.071126271
Cl       2.495361068   0.230067699   2.651760440
Cl       3.340125159  -0.045159527   9.289150372
Cl       3.212752365   5.820266397   3.578085569
Cl       2.593856404   5.530028160   8.267492716
Cl       8.739648750   0.125518504   2.654907962
Cl       8.350762440  -0.177824696   8.562412180
Cl       8.028370833   5.702492382   3.339473697
Cl       9.004372893   5.380348507   8.147166571
Cl       5.695025137   2.224210401   2.866754062
Cl       5.770784159   3.199555663   9.150301543
Cl       5.587006009   8.965984116   3.119770857
Cl       5.673871697   7.864039637   8.316308383
Cl       0.070923164   3.003937014   3.442098405
Cl       0.134952291   2.367433817   8.379413091
Cl      -0.060631229   8.485211144   2.721353276
Cl       0.054249804   8.243093864   8.901397024
C        5.761264873   4.954390550   6.033133780
C        5.624162933   4.973125425   0.724485661
C        5.491648072   0.015242434   6.328850265
C        6.264479757  -0.134849482  -0.237282055
C       -0.013150151   6.238193718   5.456137115
C        0.107942443   5.912853554   0.586555090
C       -0.537686059  -0.476239841   5.783653278
C       -0.009548062  -0.360163316  -0.312778211
N        0.073862782   5.393399759  -0.808254168
N        0.185613511   4.921176141   6.127039527
N       -0.019311978   0.690387299   0.745931598
N        0.557943157   0.531188325   5.714216636
N        5.582799178   5.921572452  -0.421231350
N        5.696795168   6.343861157   5.502130925
N        5.095292109  -0.147271960   0.686131850
N        6.638757838   0.009352190   5.378661220
H        5.796251269   4.257404641   5.188213519
H        4.745976720   4.321544915   0.660390257
H        4.937331579   0.952038256   6.202654328
H        6.254264793  -1.057418905  -0.826172164
H        0.776148603   6.370135918   4.710607559
H       -0.787252340   6.520800667   0.745030130
H       -0.533307942  -1.063750749   4.860376803
H        0.875045115  -0.216655897  -0.942386501
H        7.180918936  -0.070400853   0.359937563
H        5.884296222  -0.072057805   7.346989451
H        5.620781352   5.543253394   1.659339834
H        4.866943195   4.774109948   6.637940848
H       -0.918995721  -0.267734459  -0.917362857
H       -1.484688947   0.056405213   5.906328791
H        1.007207682   6.526379298   0.702837663
H        0.045343209   7.026322899   6.215396991
H        6.537878289   4.374713209   0.641324451
H        6.666150102   4.856150784   6.641608892
H        6.170457489   0.730932104  -0.901238066
H        4.839524352  -0.833861306   6.097211219
H        0.126019878   5.060587386   1.275356005
H       -0.998768782   6.240597852   4.978104726
H        0.025187927  -1.338924249   0.178407565
H       -0.352205044  -1.126693641   6.645512119
H        0.451045324   1.165115711   4.904579125
H       -0.066859623   1.635608682   0.345052086
H        1.074803909   4.907084900   6.658388256
H        0.066779141   6.173549598  -1.491742751
H        7.271307479   0.820122550   5.543711536
H        5.135793473  -0.957726706   1.333583179
H        4.858814121   6.447935300   4.900606767
H        4.754961992   6.549833407  -0.360990656
H        0.193677623   4.155670323   5.431375394
H       -0.768369434   4.814766306  -0.949801162
H        1.471318325   0.056874716   5.634458848
H        0.834824382   0.626700583   1.336613483
H        6.529835654   6.543100932   4.925707137
H        5.555153718   5.397408188  -1.309887373
H        6.315608545   0.064139077   4.404753138
H        4.220616443  -0.193435675   0.139294793
H       -0.839617655   0.565776295   1.372736252
H        0.563225593   1.128770347   6.564442263
H        0.898175322   4.798731075  -0.983414851
H       -0.582534028   4.756477698   6.803290597
H        5.086332020   0.696156797   1.287528201
H        7.197184469  -0.865247127   5.473588789
H        6.425689011   6.533051140  -0.422468192
H        5.661754219   7.023528028   6.286139929
