CRYSTAL
PRIMVEC
11.2820 0 0
0 11.1747 0 
0 0 11.3552
PRIMCOORD
96 1
Pb       2.988974670   2.895767960   3.026969688
Pb       2.831849628   2.739665245   8.678665684
Pb       2.884979241   8.545241580   2.833488481
Pb       2.795280120   8.283749952   8.497916315
Pb       8.624003473   2.920332166   3.096666425
Pb       8.513683262   2.725289249   8.830724193
Pb       8.510752245   8.510062350   2.808868115
Pb       8.382994763   8.327214162   8.518189558
Cl       3.036900083   2.952228638   5.821108561
Cl       2.841894942   2.238286161   0.135428417
Cl       3.097637353   8.191210070   5.638408976
Cl       2.378953913   8.788342931  -0.057595023
Cl       8.641925371   2.803702973   5.966563957
Cl       8.162899903   2.987502665   0.288922941
Cl       7.802890369   8.556325856   5.679459362
Cl       9.155747969   8.146906415  -0.024647942
Cl       3.673345997   0.096130125   3.127536956
Cl       3.201449959  -0.095557000   8.346119396
Cl       2.263045004   5.740568641   2.836234044
Cl       2.312993627   5.549708347   9.098796575
Cl       8.402146490   0.121348189   3.124615509
Cl       8.323423177  -0.086304387   8.988202633
Cl       9.087291491   5.776245815   3.293698555
Cl       8.375372638   5.538483247   8.593008633
Cl       5.790677390   3.727923960   3.044017842
Cl       5.705025121   2.657295730   8.834198889
Cl       5.679917806   7.830689372   2.582840926
Cl       5.609761047   8.269548287   9.295271714
Cl       0.137312821   2.580535125   3.134399655
Cl       0.062856958   2.110960891   8.591902571
Cl       0.007420087   8.876781851   3.327741964
Cl      -0.063683653   8.645375484   7.852587714
C        5.473119973   5.555913118   6.489995782
C        5.036609139   5.387146582  -0.149507048
C        6.094499241   0.669295059   5.927628661
C        6.191335044  -0.020688732   0.609838632
C        0.115709644   5.071804717   6.153030543
C       -0.257968926   4.804705107   0.107147902
C        0.784779089   0.108982964   5.658292176
C       -0.354690883   0.333569778   0.512658248
N        0.433772364   6.112539909   0.264657868
N        0.209400538   6.333017876   5.362700690
N       -0.018828533  -0.384330332  -0.750182307
N       -0.705874180   0.059408173   5.742876244
N        6.421577021   5.718557424   0.292833028
N        6.643492861   5.491443504   5.570086198
N        5.249843196   0.063560607  -0.542413441
N        5.194391496  -0.513771804   5.836407647
H        4.683974535   6.138205371   6.002578635
H        5.085656588   4.962664340  -1.156281185
H        6.755400048   0.664853803   5.056458857
H        7.190265764  -0.239794369   0.218574568
H        0.111733485   4.227547943   5.454757273
H        0.495191066   4.008680303   0.067657704
H        1.161943273   0.590903910   6.563135188
H       -1.313557125   0.847106977   0.379307238
H        5.850513278  -0.812612602   1.285601893
H        6.679082490   0.594117383   6.849693082
H        4.444280587   6.307546319  -0.149718734
H        5.787042246   6.034931792   7.424193236
H        0.439027164   1.058662987   0.719146864
H        1.055781678   0.687533292   4.771657740
H       -0.841857959   4.832368464  -0.819482240
H       -0.812580072   5.092072257   6.734742923
H        4.621506145   4.653623541   0.549211913
H        5.126789842   4.535221480   6.681040723
H        6.195615486   0.942238376   1.129531075
H        5.474652137   1.572219814   5.944338502
H       -0.918286877   4.660693616   0.965909742
H        0.980509304   5.011816498   6.820353342
H       -0.422693584  -0.395404823   1.327800407
H        1.156874926  -0.917182532   5.584363124
H       -1.115618408   0.993120719   5.923949756
H        0.097258624   0.296335986  -1.528067240
H       -0.581326835   6.394151851   4.693475712
H        1.107266049   6.244076527  -0.511835849
H        5.741982053  -1.387456855   5.812883822
H        5.197658250  -0.836043351  -1.051427730
H        7.034668688   6.435051213   5.398664326
H        6.881286563   6.341072809  -0.384210907
H        1.068856139   6.350089282   4.789201418
H        0.973283590   6.129045022   1.155061047
H       -0.988875901  -0.574490685   6.503903813
H       -0.770082375  -1.036826703  -1.007018039
H        6.368934935   5.061978770   4.659742471
H        6.997419471   4.856455455   0.384707922
H        4.624772787  -0.456038345   4.966169283
H        5.544772792   0.793741129  -1.220005950
H        0.851508449  -0.939276472  -0.631572866
H       -1.117589575  -0.286552163   4.861037625
H       -0.248987068   6.891230456   0.256303332
H        0.203398804   7.167518932   5.971415261
H        4.302114440   0.336336749  -0.234752815
H        4.537747598  -0.536627207   6.639261580
H        6.377255533   6.213583337   1.204117345
H        7.393765360   4.903207747   5.965080179
