CRYSTAL
PRIMVEC
11.2820 0 0
0 11.1747 0 
0 0 11.3552
PRIMCOORD
96 1
Pb       2.771027815   2.973448987   2.961708990
Pb       3.075350252   2.734287022   8.664110655
Pb       2.764498684   8.573872054   2.832309402
Pb       2.873589150   8.348768054   8.395775982
Pb       8.430788934   2.849428662   3.167158568
Pb       8.740625913   2.511837377   8.958662557
Pb       8.490990697   8.441524370   2.832510558
Pb       8.515201845   8.127218076   8.551975138
Cl       2.758497638   2.651162291   5.798474240
Cl       2.624852897   2.806009164   0.083821918
Cl       3.222863665   8.703970939   5.638153773
Cl       2.765173795   8.457973599  -0.068336546
Cl       8.484294150   2.246720372   6.099983172
Cl       8.752855998   3.085800158   0.388771987
Cl       8.078484739   8.589380034   5.720229577
Cl       8.276342476   7.634607070   0.019417096
Cl       2.205891306   0.188067736   2.766930465
Cl       3.719126452  -0.071526337   8.735850627
Cl       2.999852888   5.781863566   3.414744121
Cl       2.299299292   5.525751327   8.565111412
Cl       8.847676014   0.081923549   2.960854755
Cl       8.027540426  -0.312174415   9.122055842
Cl       8.144499857   5.690191940   3.429947442
Cl       9.305194611   5.287131608   8.504283970
Cl       5.602117629   2.988920202   2.751563219
Cl       5.949459350   3.155760410   9.021849896
Cl       5.637471795   8.670718836   2.651247448
Cl       5.649386314   7.823656136   8.440301242
Cl      -0.055562537   3.354911070   3.431821713
Cl       0.298558197   1.953427438   8.451158087
Cl      -0.005696383   8.170693382   2.554850257
Cl       0.008254154   8.737842769   8.851612488
C        5.642078221   5.111668519   6.176167165
C        4.945533043   5.845049307   0.209673503
C        5.559160643   0.330907169   5.096183591
C        5.637844605   0.360726467   0.533365369
C        0.004927598   6.412887547   5.701025004
C        0.131228638   5.314435410   0.769687904
C       -0.003627994  -0.589030173   5.878611100
C       -0.343354028  -0.086233452   0.254332919
N        0.092034272   6.247094365  -0.392806060
N        0.170738951   4.999947568   6.146399562
N        0.986959583   0.014120637  -0.409886943
N        0.025646813   0.768005872   5.271230723
N        6.202736757   5.050254360   0.287088359
N        5.594031166   6.294555026   5.271879597
N        5.710346733  -0.965517479  -0.145688435
N        6.156341593  -0.080567142   6.399852586
H        5.558660157   4.207581326   5.562032896
H        4.980176579   6.459575999  -0.695928659
H        6.348150852   0.297842635   4.336258556
H        5.595661900   1.144623072  -0.231878506
H        0.796967382   6.645854968   4.981987763
H        0.180295504   4.288817706   0.393730454
H       -0.890593693  -1.115153840   5.507833156
H       -0.979715182  -0.746441915  -0.345530716
H        6.531978263   0.480306307   1.155784247
H        5.161607353   1.345549041   5.196793834
H        4.880020450   6.480116807   1.098771624
H        4.808292492   5.175634894   6.883501038
H       -0.785050334   0.915471583   0.313865327
H       -0.056817365  -0.477265428   6.965783904
H       -0.775910033   5.461340527   1.362963187
H        0.070425091   7.064199557   6.581522987
H        4.098034431   5.151278367   0.169724934
H        6.591160717   5.117154725   6.722849776
H        4.738709421   0.388028320   1.159463884
H        4.755634870  -0.368125214   4.843353858
H        1.011654224   5.551086194   1.376602508
H       -0.977162657   6.510532967   5.224059641
H       -0.200205617  -0.492821988   1.259288137
H        0.912077525  -1.120385572   5.595864109
H       -0.831049073   1.297146108   5.524134482
H        0.875123758   0.348177169  -1.383167695
H        1.079154511   4.867132830   6.615919180
H       -0.746467396   6.083962989  -0.975117989
H        6.890145806   0.593565540   6.674620933
H        6.541769282  -0.999927730  -0.765775383
H        4.726958237   6.283752898   4.698674416
H        7.027732070   5.673762072   0.317878980
H        0.110497125   4.354385227   5.331286627
H        0.908825303   6.122557685  -1.016913083
H        0.074890818   0.717714159   4.245500473
H        1.479472891  -0.898268176  -0.410534829
H        6.407797309   6.276358458   4.624162269
H        6.289717691   4.426816101  -0.539386765
H        6.627084240  -1.002869982   6.310753854
H        4.882729970  -1.114254978  -0.740522061
H        1.587964124   0.703729284   0.072961522
H        0.846807260   1.314681155   5.588911936
H        0.078124312   7.225250754  -0.077357792
H       -0.563344687   4.770867637   6.841812605
H        5.756480965  -1.721222663   0.563851216
H        5.448645850  -0.132305593   7.153824656
H        6.201872415   4.444188831   1.128196577
H        5.623442879   7.170716571   5.809438769
