CRYSTAL
PRIMVEC
11.2820 0 0
0 11.1747 0 
0 0 11.3552
PRIMCOORD
96 1
Pb       3.024705289   2.942292500   2.770178364
Pb       2.758818905   2.743771826   8.486639935
Pb       2.976752651   8.363925997   2.922750130
Pb       2.756885734   8.351297617   8.493381446
Pb       8.731364209   2.931839721   3.041806514
Pb       8.504369939   2.691081731   8.735328854
Pb       8.658281162   8.474024202   3.094580481
Pb       8.489377759   8.373825466   8.786157203
Cl       3.003966457   2.251921601   5.604085582
Cl       2.832633875   3.591876973  -0.096746999
Cl       2.803495546   9.233895362   5.654810869
Cl       3.087366976   7.946416518  -0.008742218
Cl       8.455479397   3.050959638   5.895416849
Cl       8.707563429   3.099554745   0.185557904
Cl       8.866962265   8.450845383   5.954583263
Cl       8.406360914   8.585928392   0.260290302
Cl       3.061968869   0.053429087   2.338499973
Cl       2.636985660  -0.053615677   9.392510123
Cl       3.220118345   5.630417731   3.636783739
Cl       3.177617389   5.559703799   8.000756858
Cl       8.745082677   0.115764167   3.431495333
Cl       9.185299019  -0.072368978   9.012138129
Cl       8.643422551   5.697404877   3.337766756
Cl       8.077918303   5.534818563   8.794592995
Cl       5.873836609   2.810530549   3.132816956
Cl       5.595273079   2.794264591   8.615767102
Cl       5.806324228   8.679215506   2.981637515
Cl       5.586723222   8.598282334   8.765161012
Cl       0.264750134   2.971304724   3.116538404
Cl      -0.039417594   3.340941190   8.464032071
Cl       0.186772088   8.771882085   2.790311416
Cl      -0.024608687   7.634413143   8.998063081
C        6.078617558   6.028702306   5.844147161
C        5.908441149   5.603437214   0.653952558
C        6.204163225  -0.005479885   6.114737722
C        6.214536327   0.378653568   0.104859803
C        0.370392096   5.707375514   5.491433581
C       -0.016478127   6.036766309   0.889431892
C       -0.102764129   0.253721052   6.313879064
C       -0.129931278   0.530143458   0.460916887
N       -0.050525467   5.098130036  -0.264619072
N       -0.885061538   5.662091175   6.292438287
N        0.188823001  -0.832753319  -0.049421904
N        0.424910042   0.171368464   4.922546126
N        5.358307092   5.638626500  -0.732061170
N        5.470773717   4.667903514   5.855720932
N        5.364744066  -0.845968519   0.142395805
N        5.434025754   0.097442589   4.842960166
H        5.778023221   6.531199960   4.918132042
H        6.616607530   6.432264267   0.769163472
H        5.977260290   0.871873632   6.731741988
H        6.144327902   0.884691110   1.074917443
H        0.945122506   6.592297183   5.787362868
H        0.867007893   6.673828601   0.781554518
H       -0.672129494  -0.657667310   6.522009190
H       -0.223503394   1.206933853  -0.394565312
H        5.844301396   1.035909518  -0.690833664
H        7.271312030  -0.040640572   5.869850529
H        6.424380894   4.648732676   0.800383053
H        7.165571575   5.923287557   5.882302292
H        0.681113612   0.846294617   1.124349155
H       -0.755679996   1.129993138   6.387775007
H        0.029862880   5.455598447   1.816635044
H        0.099772875   5.760547420   4.432433368
H        5.078474984   5.706779632   1.362882961
H        5.713380128   6.576874779   6.719677751
H        7.248440106   0.076832655  -0.097451087
H        5.897465892  -0.919882434   6.634859349
H       -0.926292548   6.645497930   0.866236402
H        0.951894583   4.800668580   5.687120131
H       -1.076739414   0.484331543   1.009674189
H        0.742991896   0.345288629   7.004855362
H       -0.349108817   0.008679814   4.254528772
H        1.071467119  -0.800817467  -0.596963882
H       -1.448603579   6.524686028   6.140293419
H        0.817334777   4.530050244  -0.303378133
H        5.683423675   0.953387681   4.310188388
H        4.378836409  -0.608749255   0.326887965
H        5.788756597   4.102496144   5.049047359
H        6.116054848   5.544392420  -1.435384729
H       -0.676837055   5.593802740   7.296921779
H       -0.117118194   5.630706342  -1.147682568
H        1.113750289  -0.597575287   4.848956220
H       -0.562709154  -1.161160849  -0.672270067
H        4.445239105   4.734885980   5.798145252
H        4.858018567   6.525195715  -0.898239594
H        4.422051717   0.141831397   5.027619636
H        5.666139394  -1.479952230   0.902778365
H        0.282839692  -1.498669805   0.739686244
H        0.897444571   1.047272798   4.656804948
H       -0.862281057   4.451736506  -0.205614530
H       -1.472635726   4.841310629   6.047459852
H        5.407067555  -1.374262535  -0.752209500
H        5.603775744  -0.723463073   4.229241625
H        4.671621832   4.879858214  -0.872017510
H        5.696995716   4.150350222   6.724215527
