CRYSTAL
PRIMVEC
11.2820 0 0
0 11.1747 0 
0 0 11.3552
PRIMCOORD
96 1
Pb       2.873079703   2.746994111   2.896625475
Pb       2.741651272   2.826992292   8.585218448
Pb       2.988242189   8.291962743   2.963684943
Pb       2.977727536   8.406701866   8.667258581
Pb       8.598667429   2.701171012   3.057028728
Pb       8.305458709   2.785579153   8.688562764
Pb       8.770195908   8.333336704   3.104416361
Pb       8.507685314   8.468609637   8.737813688
Cl       2.617422428   2.706322134   5.733044440
Cl       2.625815656   2.700321888   0.068851972
Cl       3.467500347   8.713295602   5.787405875
Cl       2.281089128   8.306174093   0.113615219
Cl       8.297627850   3.322473415   5.919764557
Cl       8.414968329   2.901280967   0.268716137
Cl       8.076810380   7.937871411   5.969157123
Cl       8.978952807   8.227129476   0.290872302
Cl       3.465284984  -0.080153766   2.704029305
Cl       2.516667177  -0.002013349   8.707063539
Cl       2.755970977   5.532321832   3.181754458
Cl       2.527680448   5.642120452   8.499336092
Cl       7.882814267  -0.106587719   2.998799682
Cl       8.072547749  -0.000319872   8.101233058
Cl       8.858447869   5.531016931   3.099201688
Cl       8.454859212   5.640545994   8.979641177
Cl       5.736900254   3.106385423   2.867809899
Cl       5.539165879   3.029646703   8.799761450
Cl       5.903649698   7.917128854   2.639332845
Cl       5.739467852   8.330106748   9.528958285
Cl       0.092046425   1.919301878   3.036688283
Cl      -0.119078734   3.137347447   8.619176370
Cl       0.269442004   9.054667259   3.342543913
Cl       0.073957901   8.354668138   8.143667479
C        5.168672729   5.565007051   6.131020612
C        5.043543113   5.462331645   0.198335200
C        5.377756408   0.703303034   5.889251890
C        5.655923212   0.522112946  -0.332637908
C        0.354086845   5.566288799   5.401379467
C        0.126225351   5.210095139   0.446784748
C       -0.367031178   0.210472903   6.244970770
C       -0.346506205   0.142281161  -0.357697658
N        0.018099397   5.993352326  -0.815655782
N       -0.596701220   5.615567450   6.547121094
N        0.876101364   0.036520061   0.487425447
N        0.989822655  -0.047619060   5.687665903
N        6.523291913   5.612710023   0.311555363
N        6.011067521   5.543223261   4.903735821
N        5.784827344  -0.649348057   0.581821415
N        6.079544088  -0.583530080   5.625654280
H        4.117329188   5.612949191   5.830824320
H        4.829957760   4.732568362  -0.588988408
H        6.120083621   1.507761240   5.944169211
H        6.452778097   0.471648506  -1.081464345
H        0.198573362   6.450088446   4.772881334
H        0.098250921   4.145642043   0.193620060
H       -0.887351448   0.903181907   5.574671136
H       -0.051351990   0.003586929  -1.404022606
H        5.737706500   1.441113905   0.256973299
H        4.840095454   0.620213126   6.840311381
H        4.615943737   6.437977793  -0.054524405
H        5.439715487   6.447176530   6.721637704
H       -0.785778983   1.136023723  -0.211558605
H       -0.256601413   0.660068767   7.237098140
H       -0.718809875   5.473562586   1.091755645
H        0.170164611   4.653822253   4.824749324
H        4.659045466   5.113969071   1.161318799
H        5.364388964   4.652846158   6.705269638
H        4.680122688   0.472790208  -0.828489974
H        4.675767175   0.883875579   5.071089025
H        1.074829619   5.461493134   0.934292510
H        1.371159109   5.554555823   5.804329212
H       -1.051846637  -0.638152804  -0.049344234
H       -0.902414852  -0.741228374   6.317548916
H        1.516600557   0.844649529   5.575873371
H        1.558637207   0.780229312   0.234980820
H       -1.574748249   5.590538892   6.232113560
H       -0.874408058   5.788780370  -1.304664743
H        6.783539061  -0.759676550   6.362497817
H        6.646535300  -0.599071618   1.152658737
H        5.888840856   6.392194120   4.323231412
H        6.938817697   5.958968318  -0.568429412
H       -0.449843311   6.486822014   7.096132816
H        0.801189643   5.783264222  -1.466257304
H        0.912923952  -0.527898522   4.772738495
H        1.335584004  -0.888952271   0.381283395
H        5.796972035   4.722972000   4.296866024
H        6.989413289   4.708505679   0.516711621
H        6.581531155  -0.547638096   4.717381896
H        5.783030358  -1.531698874   0.039085926
H        0.645653910   0.183945884   1.483178984
H        1.539846098  -0.649198276   6.315253166
H        0.043684826   7.002561755  -0.623279525
H       -0.455268737   4.803967940   7.183931976
H        4.999606481  -0.652854970   1.262436352
H        5.396617666  -1.364906306   5.610071147
H        6.757715681   6.282502537   1.060284152
H        7.009404209   5.477435087   5.140659335
