CRYSTAL
PRIMVEC
11.2820 0 0
0 11.1747 0 
0 0 11.3552
PRIMCOORD
96 1
Pb       2.891475512   2.837307938   2.687787794
Pb       2.754777865   2.803129272   8.413222380
Pb       2.995333805   8.367162583   2.692213932
Pb       2.996938388   8.407037762   8.465041850
Pb       8.492112059   2.833507377   3.221857934
Pb       8.395683957   2.799714795   8.885291038
Pb       8.599610198   8.387460069   3.205319207
Pb       8.612033908   8.420783102   8.807003789
Cl       2.608134612   2.345051351   5.517416926
Cl       2.703744705   3.078792900  -0.132014435
Cl       2.604988547   8.807254760   5.559834339
Cl       3.324673809   7.742960070  -0.104018776
Cl       8.366955115   3.099238518   6.059498652
Cl       8.258083320   2.342838294   0.405747146
Cl       8.929766951   7.756098011   6.011317248
Cl       8.237846135   8.809427346   0.350684790
Cl       3.102013968   0.014161068   2.375186862
Cl       2.945385799   0.018384441   8.473153230
Cl       2.538188423   5.633989728   3.219833145
Cl       2.854061602   5.627446760   7.874203807
Cl       8.756792865   0.020912459   3.531766461
Cl       8.741179284   0.030036707   8.886774198
Cl       8.191474429   5.637102277   2.695387985
Cl       8.311012225   5.641453086   9.348299139
Cl       5.737899194   2.359010678   3.208218150
Cl       5.558338348   2.990907961   8.514725525
Cl       5.791004943   8.728163262   3.233843487
Cl       5.811907199   8.319202068   8.230764066
Cl       0.101098928   2.416204813   2.705693800
Cl      -0.085033564   3.167571557   8.694637866
Cl       0.156844921   8.712975439   2.654779130
Cl       0.164769864   8.117710475   8.811122057
C        5.510154832   5.500408472   5.350737749
C        5.424970557   4.976962588   0.440264578
C        6.087215191   0.085471575   6.240556560
C        5.310475890   0.007059209  -0.457550790
C       -0.197117512   5.004112490   5.445945047
C       -0.230501297   5.555309061   0.549802136
C       -0.339118817   0.012430208   6.346054011
C        0.491068248   0.094528029  -0.424718982
N        0.635373738   5.568714041  -0.664521873
N        0.540117741   6.265544372   5.730643026
N       -0.580317786   0.032412181   0.612986945
N        0.411414917   0.017430781   5.056608257
N        6.179102149   6.248291019   0.269756187
N        6.253071213   5.545451767   6.642466730
N        6.082222182   0.021145951   0.817785432
N        4.864266629   0.011432507   5.390346296
H        5.827046723   6.346643911   4.730513183
H        4.974982376   4.699990529  -0.517833449
H        6.700370203  -0.800497512   6.043662761
H        6.020203663  -0.036621660  -1.291851498
H       -0.972528177   5.218290360   4.701116264
H       -1.275716031   5.605828415   0.226837986
H       -0.985379737  -0.871874213   6.367366627
H        1.460925665   0.124440260   0.083839631
H        4.705879350   0.918797958  -0.515055262
H        5.774760878   0.108087155   7.289210961
H        4.640379633   5.139446046   1.188257818
H        4.438513817   5.565393559   5.566178990
H        0.346727448   1.003727786  -1.018283247
H       -0.949658977   0.920579467   6.399771531
H        0.018803416   6.420821174   1.173783829
H       -0.655084810   4.647999042   6.372787148
H        6.121474579   4.197383486   0.769428677
H        5.739507472   4.553114160   4.849369583
H        4.658661746  -0.873388823  -0.461340271
H        6.635542628   0.997948916   5.982018268
H       -0.047927482   4.624376119   1.098928246
H        0.512984849   4.262701797   5.063918874
H        0.411640374  -0.790921769  -1.064396202
H        0.382902754  -0.017809645   7.170156415
H       -0.248684414   0.046126592   4.262807567
H       -0.519497001   0.851795479   1.249717589
H       -0.124500460   7.007661395   6.006961321
H        0.495521639   6.434169966  -1.224709917
H        4.300857133  -0.837084941   5.579131111
H        6.714644894   0.846509976   0.850683116
H        6.075656899   6.431967625   7.155989650
H        5.524141394   7.021732856   0.069566615
H        1.071529455   6.567467012   4.900748708
H        0.415343578   4.759910486  -1.284161140
H        1.006131979  -0.825938244   4.977116340
H       -0.483822274  -0.817821249   1.197940757
H        7.266048395   5.467988276   6.488080645
H        6.863018629   6.162372498  -0.511511303
H        5.107731663  -0.000166100   4.391929975
H        6.677810676  -0.824637770   0.891308168
H       -1.513693696   0.027657069   0.180860475
H        1.038113568   0.843158215   5.005500866
H        1.629845209   5.503351878  -0.416457470
H        1.234959856   6.125334987   6.493073629
H        5.442110122   0.059044695   1.624816148
H        4.239213193   0.829023000   5.535376732
H        6.727302919   6.459301147   1.119956949
H        5.978586818   4.752301027   7.258213586
