CRYSTAL
PRIMVEC
11.2820 0 0
0 11.1747 0 
0 0 11.3552
PRIMCOORD
96 1
Pb       2.784840148   2.747901273   2.963652839
Pb       2.984680002   2.628493316   8.643401574
Pb       2.757113034   8.396136490   2.873374566
Pb       2.994668962   8.218149297   8.620430834
Pb       8.392457137   3.024830139   2.886622526
Pb       8.635633801   2.892628578   8.538212852
Pb       8.435287188   8.561681315   2.858472713
Pb       8.729146947   8.456176205   8.579598711
Cl       3.244641165   3.190344066   5.766607764
Cl       2.575409642   2.120461477   0.131809695
Cl       2.969005656   7.775966617   5.707540596
Cl       3.110458697   8.725621760   0.073966184
Cl       8.449151498   2.285732093   5.694885836
Cl       8.755283752   3.291732613   0.060495882
Cl       8.488211465   9.139807740   5.707535032
Cl       8.634455166   8.298204346   0.043065683
Cl       2.567925328  -0.005949570   3.378938164
Cl       3.071114083  -0.155017100   8.310291320
Cl       2.501183283   5.568473549   2.664085397
Cl       3.179699630   5.399942211   9.471475888
Cl       8.605548655   0.224454767   2.445223453
Cl       8.840928677   0.115583019   8.948228310
Cl       8.382289156   5.798399819   3.697007645
Cl       8.362454954   5.679665352   8.577181729
Cl       5.585152928   3.017431822   2.314590797
Cl       5.812385554   2.643592980   8.803928848
Cl       5.592885386   8.563530865   2.988752316
Cl       5.829155506   8.428738642   8.480239009
Cl      -0.051016762   2.943547177   2.927662939
Cl       0.159032303   2.882251577   8.805924769
Cl      -0.052872520   8.530331147   3.108145852
Cl       0.180944442   7.989178463   8.052640055
C        6.023885957   5.571771485   6.235724798
C        5.866164686   6.175269652   0.608898290
C        5.390265359   0.121387291   5.576267523
C        5.981823495  -0.219607849  -0.140107387
C        0.026749686   4.984662047   6.155540162
C       -0.135554492   6.047331110   0.020896344
C        0.466649946   0.131965238   6.199974888
C        0.372227271  -0.576699938   0.023954999
N        0.586949891   4.744335885   0.079759440
N        0.078538500   6.086025942   5.151173807
N       -0.487868082   0.639398255   0.071145729
N       -0.481411460   0.070552775   5.050452500
N        6.041279049   5.204430820  -0.507381439
N        5.196775646   5.651088309   4.997563011
N        5.125156233   0.002072006   1.062884045
N        6.152122045   0.033122282   6.853705430
H        6.736590946   4.746946673   6.131449999
H        5.708534341   7.171649044   0.184698416
H        5.687490329   1.041963675   5.060637179
H        7.022635899  -0.310322576   0.186299528
H       -0.313514957   4.072346376   5.653137215
H        0.150109136   6.562928789  -0.903740539
H       -0.107699507   0.317271635   7.114936549
H        0.999512357  -0.525014029  -0.872724402
H        5.864895127   0.637304147  -0.812090559
H        4.321332426   0.142028180   5.808473246
H        6.769225254   6.164702222   1.228329519
H        5.353826327   5.395157770   7.084513863
H       -0.276622049  -1.459714102   0.004686190
H        1.186838979   0.938497103   6.022611146
H        0.140578118   6.644980491   0.897307377
H       -0.667344015   5.279005672   6.949848115
H        4.991583786   5.872118282   1.195833617
H        6.555037218   6.519162448   6.364272013
H        5.652805028  -1.140358951  -0.633127538
H        5.632207248  -0.757933770   4.968987859
H       -1.210337189   5.844020407   0.017085248
H        1.031536062   4.841756439   6.564730799
H        1.007256775  -0.585861860   0.914958062
H        0.991638409  -0.825869744   6.272244067
H       -1.035408966   0.938910772   4.970995907
H       -1.105744591   0.674398569  -0.762647911
H       -0.837342096   6.201333365   4.680517475
H        1.605977448   4.883017697   0.038377488
H        5.962401608   0.845467139   7.469383319
H        5.358749271   0.899670833   1.527016438
H        4.638989592   4.785126823   4.894272250
H        6.818340055   5.472350284  -1.142752561
H        0.784888068   5.904189358   4.418615079
H        0.335285082   4.140840549  -0.728058631
H       -1.170828085  -0.701028678   5.185467845
H        0.100673715   1.482215347   0.085543817
H        5.792807903   5.795643085   4.173247840
H        5.166356654   5.155190899  -1.071560999
H        7.163731888   0.004060462   6.668004746
H        5.245482858  -0.773966964   1.742454325
H       -1.106200333   0.636135792   0.904754072
H        0.023024543  -0.096265526   4.170215863
H        0.366226433   4.230250590   0.948581127
H        0.333388617   6.974395893   5.608316076
H        4.130382969   0.037094875   0.800880254
H        5.911448035  -0.833211864   7.379622223
H        6.254496986   4.263217936  -0.152508655
H        4.513201183   6.437655236   5.077253599
