CRYSTAL
PRIMVEC
11.2820 0 0
0 11.1747 0 
0 0 11.3552
PRIMCOORD
96 1
Pb       2.806923065   2.602715993   2.890871780
Pb       2.938189014   2.909094985   8.506421890
Pb       2.885375586   8.274718181   2.980937406
Pb       2.971498091   8.467080543   8.612167583
Pb       8.372558929   2.729702836   3.078513350
Pb       8.548598964   2.914961772   8.726974799
Pb       8.489504299   8.326957027   3.128538252
Pb       8.666763012   8.557212184   8.785361422
Cl       3.202485386   2.608841297   5.692637414
Cl       2.898011630   2.804244267   0.020376668
Cl       3.332169855   8.493414659   5.793803731
Cl       3.226181725   8.285717503   0.125445714
Cl       8.118481387   2.301106751   5.984687620
Cl       9.099259135   3.101780820   0.324037329
Cl       8.501312236   9.016479805   5.953547623
Cl       8.676099257   8.071997357   0.285317149
Cl       3.202849783  -0.145266807   2.579557124
Cl       2.758587547   0.116079057   8.485911458
Cl       2.175542795   5.440391121   2.855557961
Cl       3.627416361   5.700173836   8.576123546
Cl       8.394507930  -0.067902341   2.722771576
Cl       9.070870519   0.171822475   9.217174750
Cl       9.034983412   5.500305613   3.483896879
Cl       8.400229225   5.754240708   8.113734159
Cl       5.586474191   3.090415675   2.509963289
Cl       5.731986404   2.364623699   8.900758859
Cl       5.687179245   7.597548088   2.999337309
Cl       5.807085839   9.010181608   8.678578011
Cl      -0.067427918   2.194177321   3.357461851
Cl       0.061561205   2.964916685   7.970167252
Cl       0.034499448   8.591357512   2.703202982
Cl       0.167118971   8.324645120   8.677927848
C        5.736182060   5.125820043   5.435644244
C        6.211593199   5.584397898  -0.464913357
C        5.747243814  -0.015367671   5.008446459
C        6.057988621   0.010738913   0.423028840
C        0.367109495   6.156752516   6.106288320
C        0.461120078   5.612090903  -0.473024901
C        0.630782909  -0.470400263   5.756142265
C        0.654633377   0.023365179  -0.225107982
N       -0.391657933   5.730064954   0.742802242
N        0.207730240   4.862736135   5.386281355
N       -0.502491026  -0.015491414   0.712861264
N       -0.631223806   0.294042657   5.967282692
N        5.081116497   5.552314239   0.507895754
N        5.845580673   6.346736682   6.284762385
N        4.761140441   0.029435446  -0.308108076
N        5.457029111   0.178121147   6.453689952
H        6.498599787   5.178335352   4.652442351
H        7.144584177   5.403820128   0.079483128
H        6.820915699  -0.179824099   4.894551859
H        6.579330920  -0.923910201   0.186373253
H        0.364972231   6.969679046   5.370432196
H        1.121336044   6.484663208  -0.523046605
H        1.472044870   0.230507280   5.781087259
H        1.575160127  -0.056478302   0.362524083
H        5.847100778   0.073052771   1.493424948
H        5.439613015   0.887299448   4.469553454
H        6.232586120   6.570298876  -0.940885510
H        4.737578889   5.095718209   4.988399043
H        0.627607464   0.969339504  -0.774257263
H        0.568272571  -0.965152879   4.780783729
H       -0.186578862   5.583552323  -1.356547571
H        1.317182917   6.143303742   6.652508404
H        6.042330648   4.804387603  -1.214351442
H        5.895955697   4.246281250   6.068714078
H        6.653848576   0.870948775   0.099006403
H        5.179634879  -0.880590857   4.652453322
H        1.047731920   4.689837305  -0.394027871
H       -0.469157524   6.271279414   6.803007316
H        0.560317769  -0.814647744  -0.923403265
H        0.725763879  -1.209784234   6.557081080
H       -0.758597939   0.977896421   5.202038408
H       -0.486023973   0.768261678   1.384588787
H        0.973773730   4.727746339   4.707193634
H       -0.994496778   6.575198815   0.699921949
H        5.981390520   0.982691488   6.832417891
H        4.184530909  -0.790753546  -0.045408187
H        5.703941774   7.197620339   5.725320898
H        5.199879056   6.286048133   1.234421847
H       -0.673205983   4.874627363   4.834118233
H        0.192323913   5.781527402   1.593375862
H       -0.612893604   0.824262045   6.851141630
H       -0.501373200  -0.888023077   1.274022730
H        6.769646590   6.375026630   6.760646362
H        5.044182005   4.639487878   1.001859352
H        5.704294543  -0.654969436   7.023607463
H        4.907231670  -0.005766301  -1.325080051
H       -1.385550982   0.039959799   0.183585271
H       -1.450545564  -0.343677863   5.981897878
H       -1.017968840   4.902491383   0.816499438
H        0.185540331   4.074931555   6.062405126
H        4.218830608   0.889411796  -0.106804329
H        4.457997757   0.366028186   6.623191671
H        4.188382365   5.718474733   0.028280924
H        5.120825482   6.327529944   7.027402215
