CRYSTAL
PRIMVEC
11.2820 0 0
0 11.1747 0 
0 0 11.3552
PRIMCOORD
96 1
Pb       3.018145441   2.638792721   2.878516958
Pb       3.072219677   2.892806041   8.575444884
Pb       2.772101779   8.267553929   3.138763197
Pb       2.791434905   8.420871309   8.751504442
Pb       8.642442052   2.741835063   2.741844739
Pb       8.749518953   2.865235380   8.537452435
Pb       8.493772521   8.209987816   2.968994570
Pb       8.448314124   8.340611378   8.685356467
Cl       2.500458374   3.044401138   5.705297163
Cl       3.455073461   2.645250733   0.056894565
Cl       2.940972658   8.088334570   5.948050466
Cl       2.646616273   8.341637075   0.282751637
Cl       9.145665500   2.420026091   5.629578116
Cl       8.189962381   2.663130561  -0.048192631
Cl       8.477356665   8.905439667   5.780246712
Cl       8.169650773   8.113009232   0.139125245
Cl       1.996681906  -0.128171149   2.995157798
Cl       3.000951389   0.062150632   8.818953168
Cl       3.346538567   5.481028364   2.657565175
Cl       3.387556309   5.665977087   9.131374278
Cl       9.078175080  -0.110816931   2.647649175
Cl       8.609692146  -0.003461852   8.810928126
Cl       8.186055431   5.481476006   3.634748151
Cl       8.082890673   5.580370231   8.113747274
Cl       5.917133017   2.170844992   3.218299274
Cl       5.947122052   2.476750684   8.110592970
Cl       5.665772886   8.471376907   3.105988224
Cl       5.625401080   8.616901296   8.684999971
Cl       0.265627559   3.311533055   2.519356840
Cl       0.311094807   3.331642391   9.018320652
Cl       0.025672408   7.598018807   3.121664951
Cl      -0.039146140   8.332800470   9.085624945
C        5.243359301   5.319778784   5.787156470
C        6.237455907   5.202129830   0.221708775
C        5.020360189  -0.161214312   5.778488281
C        5.666272040  -0.369900711   0.458223970
C       -0.123416023   6.000570241   6.357720783
C       -0.591949408   5.595216655   0.085702086
C        0.552232530  -0.138156302   6.490118961
C        0.135474733   0.578226896  -0.148598328
N        0.888636140   5.441789089   0.164915002
N       -0.058489287   4.988531071   5.265276379
N       -0.060512568  -0.813569426   0.356877557
N       -0.305415190  -0.161096471   5.272057636
N        5.335125321   6.386829613   0.251722037
N        5.935952727   6.640583178   5.849040852
N        5.797390397   0.407650782  -0.805115239
N        6.415195788   0.362544344   5.773657626
H        5.596547778   4.789906120   4.895429493
H        6.835614068   5.242620573  -0.694597664
H        4.875137269  -0.769293434   4.879763007
H        5.672637690  -1.434460300   0.207671298
H       -0.112149677   5.477498626   7.320192315
H       -0.835558690   6.159110152  -0.819399754
H        1.132503571   0.790908139   6.483096867
H        0.956856040   0.576980272  -0.872366166
H        4.719910892  -0.092815624   0.935720601
H        4.333291532   0.693584116   5.781109544
H        5.617237304   4.299677665   0.237492274
H        4.165787533   5.495638974   5.727982389
H        0.377289235   1.222661542   0.703538242
H        1.227470318  -0.999970517   6.455896999
H       -0.926899185   6.137089885   0.975207843
H       -1.050408345   6.572678771   6.244389786
H        6.886249937   5.239188209   1.103777346
H        5.500627359   4.758273210   6.691611892
H        6.510634263  -0.128464096   1.113460931
H        4.872059201  -0.765373383   6.678919741
H       -1.037795628   4.595602501   0.050498627
H        0.744868748   6.662001841   6.266333391
H       -0.797486505   0.903498809  -0.618958834
H       -0.090786375  -0.187910314   7.376547928
H        0.278169013  -0.178063946   4.412890078
H        0.790279479  -1.149929871   0.830035553
H       -0.858180545   4.332285174   5.302740158
H        1.378419039   6.353646843   0.202824682
H        6.554915751   0.943149803   4.923087993
H        4.996338680   0.225969775  -1.439390913
H        5.760158637   7.205467228   4.996035216
H        4.712334419   6.377769432  -0.578128546
H        0.803726983   4.408443558   5.333646025
H        1.235448946   4.921741540  -0.656097301
H       -0.909274286   0.686330235   5.243384599
H       -0.261257359  -1.471117950  -0.418390233
H        6.951697315   6.502263708   5.932085494
H        5.891216089   7.253964111   0.255996308
H        7.112862110  -0.401546959   5.793355437
H        6.674041437   0.188600592  -1.315234175
H       -0.836884034  -0.818831402   1.046317199
H       -0.942913004  -0.974330380   5.269090945
H        1.134480809   4.902102537   1.012411630
H       -0.071803468   5.449262172   4.342820059
H        5.806352225   1.417555809  -0.614982379
H        6.554675728   0.980018638   6.596539700
H        4.730212732   6.354316609   1.092599162
H        5.628592891   7.191060329   6.667252981
