CRYSTAL
PRIMVEC
11.2820 0 0
0 11.1747 0 
0 0 11.3552
PRIMCOORD
96 1
Pb       2.847980505   2.737069248   2.945084058
Pb       2.892962868   2.644357288   8.721732355
Pb       3.009782959   8.356307419   2.796443118
Pb       2.997170897   8.149713758   8.588260636
Pb       8.539762465   2.869634561   3.043053505
Pb       8.502486400   2.748786221   8.652613836
Pb       8.622972035   8.572965778   2.911713371
Pb       8.635636923   8.363578452   8.487298046
Cl       3.144358770   3.065040993   5.816424292
Cl       2.733807334   1.966352285   0.161353145
Cl       2.813179307   7.696606386   5.623968192
Cl       3.379320393   8.964916902  -0.038624929
Cl       8.624355536   2.848970349   5.847071763
Cl       8.518419062   3.028434648   0.174454226
Cl       9.113058527   8.106294495   5.674674132
Cl       8.367227556   8.684946898   0.020998450
Cl       2.554647705  -0.052007476   3.587613374
Cl       2.598181445  -0.175571157   8.097285070
Cl       3.212716224   5.554075755   2.435892750
Cl       3.419021842   5.401940637   9.250750556
Cl       8.998338451   0.126856794   3.176189266
Cl       8.755070837  -0.026154033   8.658569366
Cl       8.484797113   5.716621661   2.897658271
Cl       8.263939117   5.585867199   8.935766242
Cl       5.691241130   2.940302189   3.002257495
Cl       5.685175870   2.267023264   8.988736707
Cl       5.804424475   8.564486304   3.526429597
Cl       5.773470389   8.726844419   8.206681742
Cl       0.087237504   3.276689900   3.289033013
Cl       0.056979992   2.856281317   8.601476677
Cl       0.185091573   8.180119798   2.317598729
Cl       0.166470039   8.122195306   9.231501845
C        6.111211557   5.469823959   6.210332917
C        5.891637661   6.191679612   0.242925134
C        6.088658115   0.459619038   5.798497928
C        6.016342882   0.233123668   0.794567346
C        0.121719545   5.367088550   6.376938885
C        0.264466566   5.124030595   0.088857163
C       -0.247773565  -0.273269035   5.915099573
C       -0.471961759   0.481277186   0.158891062
N       -1.009495236   5.896546710   0.125057122
N        0.143239389   6.024860784   5.040041594
N        0.549279274  -0.600730439   0.050616392
N        0.320860953   1.105301980   5.878843072
N        5.697663369   4.719709233   0.105743282
N        5.359428908   5.601536579   4.927616232
N        5.967249774  -0.391815640  -0.554892315
N        4.865646847  -0.393996717   5.824180779
H        5.927007314   6.363585400   6.817229618
H        6.408595804   6.553763082  -0.650439123
H        6.661060651   0.228998717   4.892200078
H        5.123543055   0.854977438   0.917906910
H       -0.787867945   4.762604099   6.453337738
H        0.791056673   5.364434637  -0.841340460
H        0.039650585  -0.788099567   4.992952111
H       -0.360310544   1.148657174  -0.701268681
H        6.919905838   0.848326095   0.861189734
H        6.686488863   0.239315409   6.690542486
H        6.497174400   6.380796386   1.135098826
H        7.177623228   5.375756038   5.981854025
H       -0.298108365   1.027552685   1.091949387
H       -1.335276036  -0.194549700   5.984552667
H        0.023947218   4.056850252   0.126438079
H        0.129109521   6.144936643   7.149973022
H        4.906799885   6.659594727   0.332234265
H        5.751703509   4.575446786   6.732057055
H        6.037683338  -0.561649928   1.549697315
H        5.778136085   1.509287505   5.796573071
H        0.874013547   5.414210504   0.951693123
H        1.008178663   4.729610512   6.463554491
H       -1.464501854   0.021457815   0.163365435
H        0.160859972  -0.787203069   6.791584347
H       -0.053734411   1.655075234   5.089050436
H        1.499133435  -0.198095077   0.024978132
H       -0.667504749   6.667603578   4.956708290
H       -1.630170036   5.657402091  -0.674214652
H        5.115856590  -1.390647613   5.805037359
H        5.931334365   0.335942390  -1.293878914
H        5.649721870   6.450901330   4.408130634
H        6.600271961   4.219033069  -0.016238436
H        0.104776803   5.315595840   4.287241703
H       -0.824338874   6.906813162   0.070160414
H        1.344643860   1.082206000   5.775484913
H        0.418614669  -1.180385937  -0.799894491
H        4.348990376   5.696911096   5.098343582
H        5.091329695   4.528855270  -0.709663038
H        4.242285203  -0.212098042   5.013278577
H        5.128686445  -0.996460237  -0.635000746
H        0.492655604  -1.257836463   0.851086901
H        0.112344752   1.629754196   6.753244191
H       -1.541535017   5.724035546   0.998883020
H        1.008339529   6.588453439   4.949078866
H        6.799179451  -0.987958349  -0.703889713
H        4.293549501  -0.237134020   6.678105124
H        5.249555247   4.332162565   0.949000995
H        5.495463034   4.776172737   4.313254270
