CRYSTAL
PRIMVEC
11.2820 0 0
0 11.1747 0 
0 0 11.3552
PRIMCOORD
96 1
Pb       2.890575783   2.978794499   2.998386038
Pb       2.906028283   2.961501008   8.634464915
Pb       2.869995730   8.466347847   2.888916687
Pb       2.901997313   8.514757141   8.638545669
Pb       8.546090149   2.647948690   3.013656965
Pb       8.511878189   2.631523296   8.627114303
Pb       8.519404615   8.310188286   2.960874454
Pb       8.522703818   8.204823648   8.595671330
Cl       2.653638334   2.378426551   5.831928978
Cl       3.145969891   3.118428873   0.172240924
Cl       3.079784743   8.654877362   5.757440723
Cl       3.153367480   8.528916857   0.104816722
Cl       8.684886862   2.906675687   5.806360746
Cl       8.806022841   2.547362604   0.144443296
Cl       8.618674729   7.783694178   5.751648207
Cl       8.634368343   8.221646714   0.104268868
Cl       2.474502613   0.162273759   2.628916663
Cl       2.581176035   0.168600601   9.103110727
Cl       3.463107202   5.744153557   3.473357221
Cl       3.200850788   5.742717838   8.014041139
Cl       9.319655845  -0.092398229   3.284429674
Cl       8.912357934  -0.166820626   8.303772175
Cl       7.868519938   5.462060405   2.697518487
Cl       8.127038090   5.399763803   9.109031898
Cl       5.703738741   2.068346455   2.785621402
Cl       5.688995209   2.315231897   8.999962420
Cl       5.690445807   8.923297268   3.142232768
Cl       5.713542692   8.600240290   8.365157724
Cl       0.090254595   3.269755677   2.669937248
Cl       0.076190563   2.871766320   8.831947082
Cl       0.054871122   7.595536643   2.879039680
Cl       0.089068581   7.990479294   8.414385471
C        5.884308191   4.987300857   5.932787046
C        5.283670474   6.000013740   0.015392048
C        6.201920568   0.104103003   6.021522385
C        6.316513422  -0.366548005  -0.011953872
C       -0.094354060   5.132056320   5.905498467
C        0.418626201   5.685305382  -0.224105809
C        0.583579953  -0.497691755   5.901382749
C       -0.140542914  -0.559734869   0.014397304
N       -0.908240534   5.514375550   0.432007351
N        0.746446078   6.351515826   5.753851366
N        0.410645283   0.817369850   0.173987425
N       -0.356253724   0.650942876   5.971773548
N        6.062089721   4.734106086   0.138629309
N        5.680352734   6.449839190   5.744310830
N        4.945400713   0.189797370   0.168725883
N        4.895055802   0.080355310   5.303495108
H        6.479132367   4.615479243   5.092835495
H        4.725617871   5.978596041  -0.927376826
H        6.799384027  -0.748270487   5.678392403
H        6.361344474  -0.862324831  -0.987259924
H        0.111865897   4.452924001   5.071557916
H        1.062795167   4.850032215   0.072250595
H        1.202509840  -0.385373008   5.006116764
H       -0.725982212  -0.594826717  -0.910388523
H        6.498874297  -1.088052776   0.789888211
H        6.017823718   0.023875219   7.097103781
H        5.987899219   6.839876002   0.021636589
H        4.902763596   4.501913740   5.962865396
H       -0.774251364  -0.778580355   0.879078674
H       -0.005966995  -1.420018946   5.854846447
H        0.846742608   6.636890246   0.111272150
H       -1.144865342   5.439121186   5.884925334
H        4.597738597   6.067556991   0.865591735
H        6.419236372   4.830933527   6.876039618
H        7.036476662   0.457888730   0.034501923
H        6.714387934   1.044358998   5.789543003
H        0.274597985   5.694085275  -1.308829041
H        0.141188815   4.655238060   6.863021610
H        0.699533821  -1.261632422  -0.036660244
H        1.205536725  -0.487997759   6.801314090
H       -0.938810558   0.682085760   5.114599292
H       -0.348273692   1.517512572   0.227517079
H        0.538824863   6.825058888   4.850639618
H       -0.799185754   5.474452467   1.454428825
H        4.391754595  -0.816435698   5.459608882
H        4.237174226  -0.565193876   0.168014066
H        5.133797780   6.625822754   4.886110900
H        6.726340129   4.655747114  -0.653393501
H        1.750182650   6.133591326   5.782291717
H       -1.372587782   4.637415895   0.140515563
H        0.150833632   1.538408415   6.076187665
H        1.013520014   1.048748299  -0.631213894
H        6.592696650   6.945095118   5.676084163
H        5.428998867   3.919665830   0.134136320
H        5.041411092   0.187869425   4.289400422
H        4.717813907   0.844924775  -0.595216923
H        0.985039380   0.872520173   1.033061003
H       -1.002804584   0.536515203   6.779121558
H       -1.541008837   6.312895032   0.219760533
H        0.554006289   7.009502251   6.537963210
H        4.880870275   0.708324480   1.061349948
H        4.264937958   0.849118960   5.603521290
H        6.615990041   4.749411847   1.017417412
H        5.162077049   6.860247046   6.535084259
