CRYSTAL
PRIMVEC
11.2820 0 0
0 11.1747 0 
0 0 11.3552
PRIMCOORD
96 1
Pb       3.001431262   2.705836855   2.879948800
Pb       2.764583019   2.856696738   8.494062971
Pb       3.052738309   8.240954707   2.958742393
Pb       2.774779025   8.428276711   8.584372548
Pb       8.540543418   2.724718132   2.872748972
Pb       8.375119962   2.944686925   8.664872228
Pb       8.675366751   8.377182694   3.072010497
Pb       8.482286883   8.536472458   8.819165942
Cl       2.454105747   2.937315128   5.671510241
Cl       2.883656628   2.449561678   0.005524751
Cl       2.905483034   8.192153938   5.769482232
Cl       2.989490289   8.664221207   0.090810233
Cl       8.372385583   2.866519879   5.736597278
Cl       8.312589816   3.297168681   0.078578703
Cl       8.431429104   8.583263474   5.944890952
Cl       8.557356422   8.374603682   0.287669975
Cl       3.256966711  -0.109510596   2.885439239
Cl       2.428814992   0.055252270   8.345991233
Cl       2.646216376   5.453770303   2.163667345
Cl       3.496473990   5.629151713   8.787271475
Cl       8.169048147  -0.031950364   3.185394664
Cl       8.548148188   0.159303720   8.865201066
Cl       9.441137735   5.522484576   2.909657432
Cl       8.071887439   5.739593808   8.330694641
Cl       5.760107922   3.187232068   2.777378930
Cl       5.558832096   2.334146542   8.611233041
Cl       5.841027623   7.835382728   3.291798662
Cl       5.594625111   9.038552013   8.447318870
Cl       0.143688813   2.233551183   2.846936376
Cl      -0.053141694   3.240136556   8.810774925
Cl       0.231237130   8.964077512   3.063616721
Cl      -0.022113180   8.440742675   8.602268498
C        5.286576672   5.143843113   5.791584785
C        6.130493777   6.092183636   0.202795280
C        5.381975633   0.098489067   5.467419247
C        6.148852637   0.120795558   0.445409052
C       -0.078714824   5.936582415   6.339939205
C        0.016210713   6.035742322  -0.463590820
C       -0.388208897   0.205637643   6.129431802
C       -0.336704341   0.091838933  -0.251907424
N        0.047983590   4.806766879   0.379918067
N       -0.250831613   4.704819931   5.515514571
N        0.885010271  -0.073101321   0.585937778
N        0.878621689  -0.098165636   5.402068675
N        5.218280227   4.922953301   0.042374875
N        5.809074816   6.474480972   6.201827412
N        5.008572331  -0.067893872  -0.497183216
N        6.668357752   0.105265481   6.212622669
H        5.952018525   4.722274639   5.031503446
H        6.884057822   6.051434189  -0.589091264
H        5.606106465   0.067080076   4.397668130
H        6.811615979   0.894842688   0.042143535
H        0.748473698   6.526871611   5.929223144
H        0.886428886   6.021516314  -1.128425957
H       -1.161810965   0.439766641   5.389440448
H       -0.034670404   0.132708962  -1.303154097
H        6.693715239  -0.825856351   0.533328024
H        4.825892092   1.009256492   5.720149342
H        6.605942557   6.031328542   1.186021463
H        4.279209657   5.275851884   5.382576716
H       -0.836809309   1.023072631   0.038527135
H       -0.212751048   1.058195502   6.795656193
H        0.042274823   6.913287623   0.190777439
H        0.135906493   5.638374268   7.370808530
H        5.534566018   7.008310796   0.125086979
H        5.254349985   4.493293273   6.672586543
H        5.749626455   0.422599623   1.419169874
H        4.810443617  -0.788798538   5.764118594
H       -0.906749747   6.030001445  -1.052447633
H       -1.008067671   6.515390710   6.307842652
H       -1.000229947  -0.762777424  -0.079985044
H       -0.668633294  -0.674908418   6.716724112
H        1.186339140   0.715988514   4.854325138
H        1.521972392   0.735953844   0.472288105
H        0.615295683   4.134032141   5.492799852
H        0.933607288   4.767466905   0.917711139
H        7.246721771   0.925546356   5.955704855
H        5.330866087  -0.392831688  -1.425416006
H        5.942790552   7.083609354   5.370162794
H        5.749219934   4.045467895   0.117169927
H       -0.533986727   4.950512260   4.544285729
H       -0.037962232   3.972595510  -0.219556773
H        0.748346841  -0.887305399   4.734577359
H        1.420558922  -0.925358673   0.335326759
H        6.708146863   6.375963893   6.711402484
H        4.731936093   4.967678581  -0.875275698
H        7.226356020  -0.752253886   6.018580779
H        4.476731374   0.807025760  -0.619877488
H        0.652964539  -0.151971758   1.585347072
H        1.625543396  -0.332622254   6.074294002
H       -0.725535988   4.821461475   1.070310392
H       -1.014087631   4.106260985   5.877599202
H        4.352267208  -0.795306398  -0.151650489
H        6.517252552   0.142292375   7.229436191
H        4.490324622   4.922020334   0.776693218
H        5.158360308   6.952943212   6.836740203
