CRYSTAL
PRIMVEC
11.2820 0 0
0 11.1747 0 
0 0 11.3552
PRIMCOORD
96 1
Pb       3.011489876   2.749373138   2.869289409
Pb       2.996332710   2.743201616   8.556806732
Pb       2.796937162   8.318127790   3.112883673
Pb       2.861278696   8.356365538   8.821505873
Pb       8.602164395   2.769212264   2.706925914
Pb       8.592458914   2.977928044   8.384923544
Pb       8.507643721   8.351736486   2.980822099
Pb       8.400494191   8.524710703   8.751853187
Cl       2.462673892   2.394092353   5.709988991
Cl       3.346824979   3.207519898   0.019020882
Cl       2.346430290   8.683446575   5.965143738
Cl       3.574782699   8.047893451   0.269315754
Cl       8.872625660   2.563260478   5.537650681
Cl       8.406070482   3.451363210  -0.136366134
Cl       8.490194450   8.685551951   5.863967470
Cl       7.837788851   8.028675521   0.194117984
Cl       2.781405427  -0.034324443   2.228570851
Cl       2.376555033  -0.033954443   9.017313158
Cl       2.920050463   5.566474967   3.707442947
Cl       3.449652914   5.570806365   8.260501500
Cl       8.718696197  -0.050462322   2.185800044
Cl       9.028328799   0.158182702   8.452915322
Cl       8.904201517   5.580911620   3.227458355
Cl       7.826727753   5.775927700   8.373541754
Cl       5.834627148   2.148205720   3.146965461
Cl       5.805127887   2.272947806   8.259472241
Cl       5.665592672   8.336557097   3.421526435
Cl       5.606053977   8.897951444   8.371316573
Cl       0.172888525   2.941471598   2.789478192
Cl       0.150179840   3.431625467   8.417827717
Cl       0.037839807   8.268427133   2.385378670
Cl      -0.061946870   8.200938630   9.443053803
C        6.003126023   4.999638233   5.534118228
C        5.770803832   5.293719688   1.147595060
C        5.102814642  -0.101319445   5.587537206
C        5.771194355   0.312784717  -0.336825127
C       -0.330587498   6.177542021   5.998904333
C        0.696723188   5.441002925   0.112964167
C       -0.077314052  -0.211248761   4.918651659
C       -0.227001271   0.947414898  -0.202823073
N       -0.727839598   5.858150428   0.258536483
N        0.277778917   4.902648042   5.527775536
N        0.212648060  -0.423105484   0.187456381
N        0.320127749   0.076514863   6.326068745
N        5.581665336   5.552659056  -0.307481567
N        5.599027107   6.353770831   6.010528105
N        5.717816585  -0.527016344   0.896289792
N        6.526669521   0.139127443   5.956578894
H        7.032114543   5.049312541   5.162823527
H        5.904213781   4.217549323   1.292808842
H        5.054822895  -0.363672433   4.527593335
H        6.725503428   0.135277864  -0.845290554
H       -0.370245268   6.878476113   5.158994549
H        0.884108841   5.211398542  -0.941078589
H        0.812840339  -0.123096702   4.285610682
H        0.279606700   1.225790066  -1.130717907
H        5.684423225   1.363937444  -0.042200129
H        4.541415893   0.818979277   5.774923498
H        4.874278335   5.641226317   1.672993899
H        5.320932888   4.695883319   4.734395920
H        0.037184098   1.634657373   0.607474795
H       -0.830784296   0.520243569   4.612613341
H        0.862410023   4.553484956   0.730202854
H        0.291131062   6.585536532   6.803314761
H        6.651145069   5.844831360   1.490189392
H        5.934689782   4.302670012   6.377017211
H        4.938135684   0.033762261  -0.991020340
H        4.718398589  -0.918483265   6.204419988
H        1.334947242   6.267714414   0.444499249
H       -1.342693176   5.971982133   6.364507980
H       -1.309942548   0.935343020  -0.349681503
H       -0.479989238  -1.227169742   4.873461786
H        0.827204948   0.980610186   6.367665017
H        1.193254695  -0.413491861   0.513754499
H        1.211588358   5.059360062   5.103957636
H       -1.384832542   5.107725148  -0.034750086
H        6.949946631   0.864786525   5.358702918
H        6.523114517  -0.310749866   1.510360365
H        5.570205972   7.039652276   5.231613935
H        4.833604394   4.936130664  -0.669138418
H       -0.300240977   4.448295073   4.805279659
H       -0.899751931   6.704636309  -0.309025908
H        0.981428057  -0.646900791   6.654957012
H        0.135654774  -1.102400438  -0.593650671
H        6.264655212   6.690281739   6.722945028
H        6.444298827   5.390070818  -0.849013247
H        7.105223053  -0.722415287   5.895632208
H        5.754810460  -1.530831739   0.669809889
H       -0.354237130  -0.782255857   0.970291771
H       -0.494628434   0.107636782   6.967526692
H       -0.950932844   6.080465446   1.240419029
H        0.379159348   4.239261382   6.319638693
H        4.836174074  -0.354164712   1.417133644
H        6.578223644   0.498342448   6.924564811
H        5.275554782   6.528646870  -0.449186137
H        4.675438895   6.305627637   6.475874539
