CRYSTAL
PRIMVEC
11.2820 0 0
0 11.1747 0 
0 0 11.3552
PRIMCOORD
96 1
Pb       2.869398683   2.942555029   3.018042202
Pb       2.678648014   3.024984796   8.716927034
Pb       2.890554540   8.366489590   3.089876986
Pb       2.845723770   8.522796237   8.692521311
Pb       8.551024473   2.728011686   2.830854368
Pb       8.400832157   2.658015049   8.586637519
Pb       8.542979857   8.263127226   2.911858748
Pb       8.504961894   8.301483543   8.521495487
Cl       2.826602977   3.276418717   5.851595754
Cl       2.553698097   2.754976697   0.191214393
Cl       2.675943614   8.528480553   5.880095137
Cl       3.010289998   8.855721628   0.218430998
Cl       8.326392946   2.263354812   5.697952185
Cl       8.273559999   3.249849032   0.024541907
Cl       8.292574504   8.831307439   5.700882610
Cl       8.412560387   7.771764502   0.036922185
Cl       3.146495926   0.053218483   3.336380766
Cl       2.678515114   0.187197066   8.648339815
Cl       2.051595219   5.630177029   2.897859346
Cl       2.777774931   5.774388721   9.343332932
Cl       8.219744169  -0.085671390   2.436466294
Cl       8.135243752  -0.122868544   9.118805695
Cl       8.568177647   5.480730570   3.699015249
Cl       8.485133422   5.461243668   7.942337856
Cl       5.745758603   2.883681949   3.186252140
Cl       5.536120747   3.063011415   8.583589273
Cl       5.732547621   8.430194638   2.882150631
Cl       5.674555605   8.287086695   8.818546524
Cl       0.117151109   2.253230251   3.262657647
Cl      -0.089683778   2.687302844   8.124115687
Cl       0.098131527   8.799249792   2.669773821
Cl       0.023497205   8.492064828   8.926754724
C        5.279909951   5.995306719   5.698414889
C        5.384479043   5.480375589   0.506921483
C        5.284841856   0.100356842   6.283555733
C        5.297967022   0.538542244   0.119803143
C        0.341551964   6.034723018   6.053145153
C       -0.248323917   5.316952990   0.141435173
C       -0.236031608  -0.376411105   5.867010457
C       -0.366671102   0.117071837  -0.188928949
N        0.452452928   6.631271447   0.166681312
N       -0.263304598   4.747587505   5.610124080
N        0.866772253   0.106759287   0.649976265
N        1.049512041   0.379270056   5.866078410
N        6.060403418   5.590854718  -0.815852422
N        6.056929727   4.730552906   5.827153043
N        6.051154639  -0.747354413   0.150096715
N        6.143338719  -0.040006307   5.073553831
H        5.685703580   6.572215558   4.859541360
H        4.304992142   5.401913571   0.336786458
H        4.590007695  -0.745639933   6.317798382
H        6.020558438   1.360235847   0.046516827
H        0.381038849   6.715473755   5.196510874
H       -0.081392194   4.854839362  -0.838609986
H       -0.749305509  -0.195493275   4.917024785
H       -0.068001590   0.137040100  -1.242170904
H        4.716538410   0.620791887   1.044451870
H        4.729075875   1.042620881   6.213640766
H        5.618899573   6.375666671   1.095020557
H        5.382081443   6.568668037   6.627577863
H       -0.956132303   1.007041059   0.061931070
H       -0.849793619  -0.017415785   6.700291721
H       -1.316541443   5.490798361   0.297545787
H        1.355928554   5.836563692   6.414534351
H        5.760199551   4.584482059   1.013806189
H        4.228697949   5.740715588   5.522407397
H        4.629761199   0.535312524  -0.748068943
H        5.930947462   0.102358681   7.169451066
H        0.169447564   4.685208982   0.932985178
H       -0.275828029   6.450924115   6.856184117
H       -0.948371413  -0.786453775   0.022546930
H       -0.007877947  -1.440078493   5.984781910
H        0.887667021   1.387587849   5.755694412
H        1.435164515   0.965426536   0.484933541
H        0.324759342   4.291039555   4.899303734
H        0.126486942   7.246887549  -0.606099616
H        5.573693019  -0.081134992   4.218156056
H        6.700968806  -0.757897285   0.959448815
H        7.052623415   4.928533887   6.005857354
H        5.771406009   6.446828564  -1.330328039
H       -1.194928350   4.909530438   5.178778026
H        1.464232214   6.506290233   0.028170739
H        1.670362273   0.088085149   5.088121377
H        1.470146277  -0.713660783   0.445285921
H        5.994806999   4.150994559   4.966426561
H        5.855886606   4.769829596  -1.418057712
H        6.729292155  -0.897061001   5.132472768
H        6.625940042  -0.846454345  -0.705963124
H        0.634917752   0.070961507   1.650656840
H        1.568511643   0.246002222   6.758278830
H        0.311116749   7.139367807   1.058235018
H       -0.360012233   4.087808632   6.405917140
H        5.407897720  -1.547405150   0.225171282
H        6.798837850   0.760895448   5.008115175
H        7.080275371   5.644767660  -0.692435620
H        5.721831019   4.158789522   6.624240261
