CRYSTAL
PRIMVEC
11.2820 0 0
0 11.1747 0 
0 0 11.3552
PRIMCOORD
96 1
Pb       3.031871578   2.853463117   2.896333669
Pb       3.106124314   2.928400122   8.529106561
Pb       2.759059621   8.310540802   2.996070225
Pb       2.826899712   8.421189030   8.671194789
Pb       8.714988629   2.739768463   2.946703437
Pb       8.749700710   2.757935073   8.726505843
Pb       8.292661610   8.330535183   3.091755958
Pb       8.298487958   8.344132693   8.794021424
Cl       3.777280234   2.727968082   5.701814046
Cl       2.742770207   2.413722611  -0.001038605
Cl       2.981910485   8.906236744   5.815895102
Cl       2.500489167   8.350076809   0.144463603
Cl       8.194571064   2.416591602   5.936959485
Cl       9.011156347   3.596377853   0.248936265
Cl       8.083483191   8.784347031   5.979557892
Cl       8.272747410   7.745654017   0.288393441
Cl       2.657005261   0.023348476   2.789960443
Cl       3.594024924   0.107723905   8.525141893
Cl       2.337312409   5.550187294   3.392599882
Cl       2.218347701   5.666810024   8.359239789
Cl       8.641001807  -0.025927471   2.209004200
Cl       7.815299882   0.009172034   9.050949933
Cl       8.558976689   5.536561205   3.797315909
Cl       8.879650367   5.533287444   8.170206716
Cl       5.912585014   2.858028853   2.328294476
Cl       5.974894375   3.341646588   9.006182632
Cl       5.531521845   7.878954614   2.785808771
Cl       5.538930436   7.638694915   8.942251665
Cl       0.242733487   2.609563528   3.551569011
Cl       0.329188970   2.479355762   7.955389079
Cl      -0.146459698   8.290972302   2.656374863
Cl      -0.119012121   8.726855264   9.065896681
C        5.165275291   6.079495243   5.867930939
C        4.676279468   5.506245479   0.343165862
C        5.730788443  -0.127818897   4.771437805
C        5.508321514  -0.727742182   0.359244402
C        0.100225911   6.617748509   5.887277136
C        0.797973095   5.140366322   0.135422342
C       -0.317839288  -0.473031969   5.710474448
C       -0.102518686   0.560702955  -0.502178491
N       -0.173845111   6.265823769   0.047250439
N       -0.053093482   5.135965118   5.842355683
N        0.193300384  -0.384597965   0.610040069
N        0.981633330   0.260201113   5.734589405
N        6.143461570   5.338485443   0.172017039
N        6.251035223   5.072166468   6.048085205
N        5.566358369   0.684695445  -0.113354225
N        6.009406162   0.049431645   6.222881627
H        4.684111015   5.901421950   4.900800528
H        4.336778182   6.301228799  -0.326877063
H        6.673616747  -0.006666792   4.224402862
H        4.835617030  -0.779910838   1.220838585
H        1.166744629   6.853166306   5.833344281
H        1.806356641   5.561963535   0.168282075
H       -0.337097229  -1.120245016   4.825702208
H        0.769916015   0.617268295  -1.159085222
H        6.519519510  -1.041350413   0.637012131
H        5.009702851   0.630957092   4.456947856
H        4.473951521   5.780170801   1.383420428
H        5.611092519   7.078542102   5.896969478
H       -0.316883711   1.547273135  -0.076003255
H       -1.132002744   0.260335035   5.666883380
H        0.679298446   4.505872181  -0.747353397
H       -0.323435907   6.979348648   6.829467499
H        4.193068812   4.554465718   0.094926873
H        4.439858885   5.961544005   6.679767228
H        5.129399570  -1.353830658  -0.455451930
H        5.324388361  -1.131469741   4.612352213
H        0.584287749   4.571156129   1.045954454
H       -0.428237941   7.038523055   5.026866523
H       -0.969520981   0.177602959  -1.052710372
H       -0.398029251  -1.074160039   6.623807558
H        1.087162269   0.823032098   4.875750096
H        0.993497314  -0.072911645   1.193426703
H        0.378390423   4.692465414   6.668479906
H       -0.008832014   6.866720557  -0.780816419
H        6.512666492   0.940535704   6.380795717
H        5.907020697   1.318912844   0.631533652
H        6.972212929   5.156970151   5.302519613
H        6.670290672   6.226629000   0.290232917
H        0.386180930   4.740858522   4.995401200
H       -0.119852375   6.885889988   0.880353583
H        1.776489572  -0.407009058   5.798608078
H        0.444111435  -1.316795816   0.247143575
H        5.865935655   4.116540254   6.020186577
H        6.343370564   4.960660652  -0.769928539
H        6.643352623  -0.707111528   6.537041253
H        4.629829366   1.030077613  -0.382949770
H       -0.631328722  -0.483771039   1.232373047
H        0.999247722   0.918221611   6.536281245
H       -1.138561189   5.907207126  -0.004531023
H       -1.049294894   4.879419688   5.830173516
H        6.195987107   0.749635433  -0.934111333
H        5.151869947   0.037657786   6.806125812
H        6.502662026   4.646784988   0.848417224
H        6.740434909   5.187693231   6.949405925
