CRYSTAL
PRIMVEC
11.2820 0 0
0 11.1747 0 
0 0 11.3552
PRIMCOORD
96 1
Pb       2.785446300   2.599414187   2.974445069
Pb       2.757857427   2.758056264   8.634062294
Pb       2.987779951   8.102428205   3.005124577
Pb       3.086708529   8.418078988   8.711183520
Pb       8.483801226   2.757724719   2.900234966
Pb       8.446748686   2.964930118   8.634285110
Pb       8.647564686   8.338930311   2.960142798
Pb       8.652436099   8.724317040   8.668653741
Cl       2.756430245   2.214245411   5.823510942
Cl       2.971021407   2.890236575   0.145939786
Cl       3.385402920   8.754119035   5.789566449
Cl       2.282736639   8.167859797   0.146396091
Cl       8.515798491   2.899744014   5.769707391
Cl       8.029001744   3.403100629   0.124686685
Cl       8.251350257   8.782326761   5.757630828
Cl       9.246752673   8.114311053   0.100121896
Cl       2.673223165  -0.249306310   2.848731733
Cl       3.346060099   0.007718907   8.987996786
Cl       3.260019730   5.334213844   3.533616827
Cl       2.708203106   5.595302473   8.388283116
Cl       8.624337601  -0.061534650   2.599796826
Cl       8.150486008   0.242948967   9.265750352
Cl       8.083776298   5.550724369   3.329097227
Cl       8.859402687   5.839974674   8.468573677
Cl       5.649191261   2.264305646   3.172098618
Cl       5.588916846   3.178639525   8.466771125
Cl       5.812168972   8.407330783   2.616869007
Cl       5.928740168   8.189923007   9.186541962
Cl      -0.009492405   2.733032262   2.671852370
Cl      -0.051935845   2.797506164   8.810147855
Cl       0.170167366   8.274661246   3.679824134
Cl       0.258002152   8.673958373   8.198264810
C        5.791956680   6.046748445   6.121169284
C        5.121618131   5.458082313   0.222508219
C        5.905879316   0.227017909   6.407887114
C        5.626514412  -0.198351065   0.456215249
C        0.251355983   4.934730826   5.665197350
C        0.118263546   5.135153864   0.269408484
C       -0.382498884   0.434532750   5.768638720
C        0.216524192   0.324947447  -0.217699598
N        0.192583125   5.938391979  -0.981970823
N       -0.896629421   5.888658432   5.646680790
N        0.085985597  -0.568981630   0.969721579
N        0.849747629  -0.402012770   5.831524693
N        6.402519028   6.217483061   0.279732995
N        5.607887609   4.654534955   5.621690698
N        5.612059756   1.114161853  -0.248688817
N        5.741818781  -0.393679290   5.063118577
H        6.068785362   6.687830428   5.277597416
H        5.128019136   4.829664552  -0.674277254
H        5.955999295  -0.571573576   7.156006318
H        4.747063226  -0.768031057   0.137189866
H        1.024063173   5.328895807   6.334415096
H       -0.027171268   4.084508997   0.003655173
H       -0.313958993   1.094420117   4.896232083
H        1.072228277  -0.008606723  -0.815675510
H        5.593890287  -0.012338168   1.532365353
H        5.042295764   0.870245653   6.601952919
H        4.291079860   6.173080472   0.176922702
H        6.582564599   6.048528014   6.879270157
H        0.381505844   1.346607875   0.139594608
H       -0.440469090   1.034810479   6.683822965
H       -0.726271180   5.500002284   0.864524812
H        0.642773154   4.840402736   4.647273602
H        5.039253153   4.839202418   1.121873077
H        4.846041620   6.379169066   6.559580851
H        6.545962912  -0.727128643   0.185935933
H        6.830359907   0.813817938   6.410286414
H        1.058307381   5.257192287   0.818284675
H       -0.109002849   3.966446655   6.026935419
H       -0.708503860   0.271695256  -0.802366487
H       -1.252147338  -0.227432361   5.681124668
H        1.687571646   0.204335377   5.894425064
H        0.931577010  -0.512360839   1.572916734
H       -0.589249923   6.820089878   5.318685695
H       -0.680123408   5.865339304  -1.538691118
H        4.887175655  -0.984678674   5.054853317
H        4.745161500   1.653560823  -0.040173862
H        6.467006955   4.299352863   5.179019051
H        6.486586653   6.834929998  -0.552566744
H       -1.328510713   5.978707928   6.588001303
H        0.983047113   5.644670480  -1.590550765
H        0.945915283  -0.996633669   4.994978286
H       -0.035680761  -1.548907553   0.680848489
H        4.842076357   4.627355079   4.923134325
H        7.199315807   5.559722946   0.308961116
H        6.543229345  -1.014093773   4.867665331
H        5.644189767   0.980130052  -1.267028279
H       -0.742087810  -0.307987551   1.540266277
H        0.817718931  -1.044123717   6.648160725
H        0.348043273   6.932028773  -0.760713986
H       -1.642049506   5.573090654   4.998460811
H        6.421644847   1.706652737   0.005097395
H        5.677244759   0.335405592   4.327130573
H        6.418759758   6.825403467   1.117463994
H        5.390548268   4.019168913   6.412651284
