CRYSTAL
PRIMVEC
11.2820 0 0
0 11.1747 0 
0 0 11.3552
PRIMCOORD
96 1
Pb       2.773913394   2.928076580   2.950764239
Pb       2.774824334   3.001050211   8.730306848
Pb       2.984044583   8.540365572   2.970461790
Pb       2.997007298   8.542934748   8.618253540
Pb       8.442230860   2.604518641   2.968935774
Pb       8.462426754   2.558363075   8.744576784
Pb       8.628952115   8.237406037   2.979857644
Pb       8.634520965   8.194797070   8.662703859
Cl       2.609659631   3.119133212   5.844139591
Cl       2.537349570   2.467082982   0.140796790
Cl       2.669880237   8.554785376   5.788559140
Cl       3.003395491   9.032786782   0.097352513
Cl       8.290069053   2.572222106   5.867242690
Cl       8.207528234   3.105567130   0.165548764
Cl       8.380649126   8.287877964   5.835978855
Cl       8.561401566   7.697100954   0.145104400
Cl       3.375430362   0.176077187   3.402777725
Cl       3.106963409   0.207734271   8.248507211
Cl       2.283290095   5.750650741   2.742893894
Cl       2.610393590   5.793969321   9.252611146
Cl       7.901919677  -0.192272930   2.684658210
Cl       8.143662099  -0.230793677   9.155340175
Cl       9.103258968   5.385708660   3.312328144
Cl       8.749846808   5.356666305   8.238733408
Cl       5.673157165   3.207961758   3.402188781
Cl       5.640627984   3.104667146   8.467432815
Cl       5.800842306   7.819347398   3.032897590
Cl       5.795776711   8.126647843   8.908866353
Cl       0.033086652   2.263377787   3.375928342
Cl       0.008274807   2.290076753   8.351834766
Cl       0.152305593   8.875588979   2.828732622
Cl       0.160632124   8.552801296   8.991656684
C        5.272728283   5.808339767   6.059951305
C        5.244440089   5.235034828   0.435030280
C        6.024826629  -0.282371637   5.896529031
C        5.386682313   0.476926070   0.092000253
C        0.346841462   6.039121736   6.034794296
C       -0.233766599   5.142674893   0.013463402
C       -0.488321639  -0.359873110   5.985287467
C       -0.468791961   0.373198808   0.357674476
N        0.386534196   6.467791244   0.296434129
N       -0.290081146   4.708645887   5.815914878
N        0.523349317   0.063937033  -0.711007100
N        0.876473571   0.131968418   5.650645882
N        6.150501079   5.472145103  -0.725185386
N        6.630715556   5.578873826   5.491733899
N        6.010118285  -0.872368964   0.210133249
N        5.324275195   1.034231837   5.859520297
H        4.636055654   4.953779191   5.805418458
H        4.210994408   5.229588511   0.072340814
H        7.103238176  -0.099940234   5.880085526
H        4.820643231   0.519448847  -0.845088694
H        1.041373030   6.227770603   5.210063943
H        0.561908259   4.389047187  -0.019433389
H       -0.796450586  -1.056353120   5.199571171
H       -1.473008620   0.318838383  -0.076531434
H        6.184352783   1.229055809   0.097064234
H        5.725845884  -0.860052789   5.015090461
H        5.390200355   6.037103387   1.167648417
H        4.871516045   6.729025574   5.621837011
H       -0.262377250   1.379850757   0.735264038
H       -1.168709188   0.497893692   6.031961744
H       -0.757336066   5.197045152  -0.947737282
H        0.883333664   6.022597981   6.990497532
H        5.505720086   4.270052517   0.881635006
H        5.361464781   5.910522383   7.146129684
H        4.714165998   0.619094741   0.944583349
H        5.739632088  -0.802818369   6.817801739
H       -0.945222308   4.920166115   0.815047502
H       -0.441217037   6.801108174   6.050225887
H       -0.358629411  -0.358380914   1.165923904
H       -0.446689969  -0.875160925   6.951061096
H        0.854729835   0.664391123   4.761662138
H        0.459875717   0.762371791  -1.476465233
H        0.427472120   3.965528036   5.765731551
H        1.044909609   6.724192759  -0.454401286
H        5.562334297   1.583597304   5.011545773
H        6.650717270  -1.039020926  -0.583106505
H        6.577915416   5.460250202   4.471375215
H        5.947123915   6.374365575  -1.201863915
H       -0.830231563   4.715932903   4.928210827
H        0.919296271   6.426016086   1.189907185
H        1.542552200  -0.659204633   5.561729092
H        0.363038364  -0.872684951  -1.133763861
H        7.076491694   4.727588303   5.870753872
H        6.051572101   4.716941670  -1.429021771
H        5.559421462   1.617944963   6.679643139
H        5.274147503  -1.598109094   0.210204761
H        1.484347460   0.087237424  -0.347110904
H        1.237496200   0.763527747   6.378911252
H       -0.340804632   7.195744032   0.363143340
H       -0.950948441   4.488857894   6.575595310
H        6.564024741  -0.922853866   1.087176070
H        4.304668415   0.908183009   5.855935651
H        7.133968854   5.492329898  -0.425776049
H        7.256537371   6.389158912   5.677434011
