CRYSTAL
PRIMVEC
11.2820 0 0
0 11.1747 0 
0 0 11.3552
PRIMCOORD
96 1
Pb       2.864921428   2.860819573   3.022949946
Pb       2.958520036   2.734866381   8.675220952
Pb       2.861374879   8.443483447   2.853783363
Pb       2.967094106   8.309044944   8.422939943
Pb       8.386184899   2.895701724   3.004671204
Pb       8.541519738   2.732358396   8.777923725
Pb       8.469841747   8.447044518   2.817893675
Pb       8.660902759   8.353225444   8.569274754
Cl       2.736770500   3.166532066   5.843315339
Cl       2.986397486   2.941930140   0.156310053
Cl       2.171055292   8.158426830   5.605917839
Cl       3.410032424   8.461983680  -0.050831404
Cl       8.285587269   2.789403989   5.866008493
Cl       8.317164988   2.549292703   0.183489869
Cl       8.837218499   8.716689234   5.663989301
Cl       8.195601795   8.797663307  -0.040841096
Cl       2.803775250   0.054446259   3.294686803
Cl       2.555687581  -0.082727511   8.956355656
Cl       2.249030931   5.662206132   2.547406708
Cl       3.224840734   5.565628324   8.996192683
Cl       8.176429088   0.061468510   3.187083560
Cl       9.098880494  -0.036481033   8.548658315
Cl       8.924026769   5.688032334   3.454651671
Cl       8.214946790   5.558542689   8.611531045
Cl       5.629656120   3.513332995   2.996541995
Cl       5.764068384   1.947654059   8.639664204
Cl       5.676864763   7.862721806   3.236002914
Cl       5.835183769   8.688426884   8.020304744
Cl      -0.019703744   2.724317630   3.246196510
Cl       0.134194604   3.041548231   8.975857006
Cl       0.032362869   8.802633258   2.327826367
Cl       0.201331274   7.988687991   9.165806110
C        5.385020472   5.354916195   5.923617010
C        6.099820832   5.578186593  -0.151469294
C        5.382528205   0.093062753   5.424646161
C        5.415563607   0.201535286   0.808410309
C       -0.451353555   5.526592529   6.405025511
C       -0.677664398   5.479554687   0.439612078
C        0.503708210   0.113302420   6.148656501
C        0.027836113   0.628853371   0.589326167
N        0.617483577   5.431916088  -0.291848585
N        0.505157506   5.430644322   5.269400130
N        0.033181854  -0.476155300  -0.410777586
N       -0.168928813  -0.059430344   4.829362614
N        4.836119310   5.638133853   0.630341222
N        6.690775897   6.069069703   5.841370566
N        5.676800600  -0.412894188  -0.523840163
N        6.685304651   0.046994817   6.142473717
H        4.779704756   5.634238160   5.055590525
H        6.694897666   6.472009649   0.069401781
H        5.581506956   0.207338702   4.355125026
H        4.417303807   0.650242552   0.792274353
H       -1.092224170   6.398447145   6.236294880
H       -1.492680621   5.522099981  -0.292698062
H        0.007292298   0.923354568   6.694144288
H        0.108132147   1.580931809   0.054763910
H        6.176757871   0.966412448   0.995001525
H        4.806747141   0.947490400   5.799488246
H        5.840374551   5.558453388  -1.214128187
H        4.887557073   5.644031322   6.856296646
H        0.878941287   0.489028892   1.264547156
H        1.553305159   0.361607015   5.963337522
H       -0.678795470   6.367765928   1.080288682
H        0.114161618   5.640531264   7.335504653
H        6.644884116   4.668118995   0.124758239
H        5.580621917   4.278460391   5.910393037
H        5.469844000  -0.585007913   1.569849720
H        4.843767262  -0.842466221   5.611692625
H       -0.762717789   4.576565973   1.053038838
H       -1.054152469   4.613771166   6.432627332
H       -0.911235626   0.585120405   1.150685301
H        0.424467519  -0.823487312   6.708626185
H       -0.144850825   0.828626123   4.282024362
H        0.894993548  -0.455955071  -0.993058131
H        1.074814283   6.297245588   5.201861827
H        0.725601233   6.273938220  -0.888651631
H        7.223038515   0.929053014   5.998495159
H        5.692013720   0.308756100  -1.273589596
H        6.556168627   7.087632205   5.817445023
H        4.299692288   6.494715382   0.389725313
H        0.005211738   5.292204673   4.380329531
H        0.653853420   4.603475247  -0.918369691
H       -1.151915009  -0.346973252   4.934299718
H       -0.766212277  -0.397599761  -1.065943912
H        7.232685266   5.811977848   4.995070372
H        5.021563930   5.644902163   1.641944885
H        7.275399450  -0.741606007   5.825642284
H        4.938865111  -1.104744510  -0.735858317
H       -0.022960045  -1.388090367   0.065919601
H        0.293192521  -0.781281484   4.255525638
H        1.399795702   5.384095532   0.380572390
H        1.162297582   4.635215731   5.398976775
H        6.579924700  -0.923430156  -0.517889878
H        6.537715611  -0.061707987   7.153247065
H        4.236952754   4.813434122   0.433779815
H        7.271466017   5.847223300   6.675923902
