CRYSTAL
PRIMVEC
11.2820 0 0
0 11.1747 0 
0 0 11.3552
PRIMCOORD
96 1
Pb       2.808461808   2.889678970   2.903694844
Pb       2.689345397   3.033845867   8.639927019
Pb       2.876287647   8.529875131   2.847185133
Pb       2.853758415   8.601191765   8.594101473
Pb       8.533634512   2.719834358   3.165710237
Pb       8.290075686   2.740506997   8.736515792
Pb       8.620686474   8.298481225   2.927331066
Pb       8.542658855   8.390371812   8.578719946
Cl       2.653840680   2.742907080   5.769356955
Cl       2.676345053   3.333363935   0.090872628
Cl       2.600282218   8.811086741   5.717238392
Cl       3.316586121   8.142292188   0.024016581
Cl       8.142688782   2.968537841   5.967615154
Cl       8.483694368   2.202904873   0.293369224
Cl       8.919110234   8.030294702   5.765130237
Cl       8.143378081   8.765877846   0.088913178
Cl       3.404531132   0.117306591   2.765664236
Cl       3.188706912   0.238601758   8.567943901
Cl       2.711714963   5.722635080   3.564785732
Cl       2.107518807   5.838430797   8.337453635
Cl       8.190487343  -0.091984730   3.396770694
Cl       7.948235775  -0.071226355   8.248188536
Cl       8.970127246   5.492296128   2.505349728
Cl       8.859385434   5.529146681   9.220558910
Cl       5.710377205   2.971772820   2.969919124
Cl       5.485211858   3.788887036   8.701859264
Cl       5.708386447   8.395092573   2.999274861
Cl       5.646168791   8.091329215   8.192282341
Cl       0.053667473   2.478250006   2.763304438
Cl      -0.164482982   2.361970060   8.780233710
Cl       0.035398475   8.970209102   2.544624999
Cl      -0.016714941   9.187575081   8.797210946
C        6.214532874   5.830617145   5.365867335
C        5.885778967   5.297861345   0.629297952
C        5.352184434   0.330909254   5.764434684
C        5.279889800   0.239489302  -0.281466423
C       -0.459240999   5.028799553   5.796894531
C        0.377179391   6.059377541   0.332422100
C       -0.501116026   0.159824008   5.568269141
C        0.932078064   0.132459567   0.122196408
N       -0.255947814   4.731611384   0.093519694
N        0.390486179   6.252289240   5.735392132
N       -0.522617185  -0.183168142   0.066579738
N        0.761822721   0.200445484   6.356197436
N        5.931118461   6.318595559  -0.456291335
N        5.253681105   4.722185216   5.622797112
N        6.097124534   0.077746084   0.952786106
N        6.061802789  -0.980206687   5.720370817
H        7.209891713   5.503950805   5.680643640
H        5.006072024   4.665722612   0.470195255
H        5.668227289   0.922682953   4.898491676
H        5.930938171   0.120037329  -1.155505682
H        0.197824796   4.152177907   5.825257670
H        1.041041381   6.284586809  -0.508280891
H       -0.253348223   0.167134277   4.501958985
H        1.145308769   0.615767885   1.078649477
H        4.823547393   1.236047472  -0.271629203
H        5.620824974   0.831968681   6.699862626
H        5.817987249   5.817988451   1.590686611
H        5.902514741   6.705982946   5.943375358
H        1.178009371   0.791463000  -0.714235460
H       -1.106891117   1.035900766   5.827578379
H        0.950321757   6.007620608   1.265059826
H       -1.096978741   5.006195428   4.907428494
H        6.800606003   4.697717107   0.588869289
H        6.204518866   6.053983612   4.294811955
H        4.499450259  -0.527429676  -0.281623078
H        4.275952969   0.143228548   5.727571616
H       -0.414495387   6.811182061   0.417872645
H       -1.073325290   5.076915806   6.702724064
H        1.487475987  -0.808753555   0.040363700
H       -1.042867113  -0.757047127   5.823422021
H        1.327394418   1.044666507   6.138305830
H       -1.121298051   0.661604800   0.132264293
H        1.045679211   6.216838342   4.930588954
H        0.472016079   4.002931763  -0.000403849
H        7.079156707  -0.835348384   5.743546735
H        6.843554727   0.793889663   0.990479091
H        5.288564556   4.412091968   6.616401550
H        5.082542560   6.919399221  -0.426347649
H        0.977550290   6.312608163   6.594374696
H       -0.842062972   4.764953590  -0.762133951
H        1.355402994  -0.630509385   6.158233967
H       -0.758264092  -0.819400149   0.846527037
H        5.481999636   3.915384643   5.012828272
H        5.978385787   5.861889054  -1.379956366
H        5.847428867  -1.502006898   4.847983908
H        6.563319768  -0.842313967   0.970422189
H       -0.728215827  -0.676313202  -0.819678291
H        0.570176094   0.212707883   7.366573329
H       -0.873094577   4.491315089   0.885154643
H       -0.205117066   7.092710652   5.671012792
H        5.498447136   0.159223653   1.792500038
H        5.816036914  -1.578891403   6.532336476
H        6.748120568   6.944261662  -0.353035836
H        4.291167474   5.002177395   5.384264781
