CRYSTAL
PRIMVEC
11.2820 0 0
0 11.1747 0 
0 0 11.3552
PRIMCOORD
96 1
Pb       2.983608912   2.627801025   3.036843269
Pb       3.000386248   2.861715565   8.707732253
Pb       2.818209195   8.177781018   2.787654744
Pb       2.872625110   8.368661225   8.429790209
Pb       8.627216470   2.770553700   3.116217890
Pb       8.621854472   2.936788027   8.814831603
Pb       8.422671947   8.391795597   2.861989380
Pb       8.527195043   8.550687588   8.598157169
Cl       2.949333708   2.750346984   5.845550804
Cl       2.721054336   2.372088647   0.144481056
Cl       3.306825269   7.866883922   5.599000131
Cl       2.566808810   8.757475645  -0.057840453
Cl       8.794495931   3.419299828   5.933793874
Cl       8.878346535   2.478495130   0.267163530
Cl       8.141969372   7.953098784   5.755712412
Cl       8.921438890   8.896728454   0.094875896
Cl       3.152264237  -0.187607798   2.824065758
Cl       2.620325801   0.056479872   8.301007427
Cl       2.520190868   5.362719164   2.414538967
Cl       3.164346678   5.660129475   9.253145344
Cl       8.184476749  -0.024721536   3.532159963
Cl       8.826763266   0.195221275   7.898690769
Cl       8.995600063   5.548699561   2.639151489
Cl       8.185768279   5.755181059   9.141731285
Cl       5.800010844   3.103922697   3.518263000
Cl       5.802143642   2.234553832   8.882089675
Cl       5.638484981   7.840299085   2.443578285
Cl       5.684517856   8.739426996   8.998967784
Cl       0.157950785   2.239182638   3.099588235
Cl       0.167354431   3.203712432   8.762077333
Cl      -0.012624680   8.440350169   3.153044081
Cl       0.034733410   8.032705501   8.070924908
C        5.617442836   5.331913229   6.595232509
C        5.797975680   4.820690406   0.455432031
C        5.324335891  -0.344480954   5.766949175
C        5.998702373   0.009110844   0.548372691
C        0.626713317   5.174921938   5.549714784
C       -0.009819777   6.162760642  -0.080788798
C        0.242545644  -0.357769924   5.416303518
C       -0.003829347   0.022148663  -0.638883927
N        0.152360601   4.734981160   0.320976873
N       -0.510344041   6.135826469   5.517119815
N        0.191731531  -0.197864971   0.823833561
N        0.196088388   0.862835530   6.271223645
N        5.707380444   6.127739577  -0.250956021
N        5.808134246   5.892032370   5.229578805
N        4.755477397  -0.069761549  -0.268374394
N        6.152854913   0.884647195   5.951299403
H        4.674030797   4.776269103   6.610507740
H        5.815824990   4.017861034  -0.291157690
H        5.535223944  -0.757468665   4.775088940
H        6.628461952  -0.856622627   0.314830130
H        0.556272374   4.521524157   4.673944545
H        0.900253340   6.476561499  -0.600696564
H        1.154491841  -0.330054304   4.809783818
H        0.307197259  -0.887086249  -1.163434317
H        5.720461629   0.002544372   1.607337319
H        4.269409357  -0.065024003   5.852776211
H        4.923436740   4.720238111   1.106737890
H        5.586436339   6.162227671   7.309317074
H        0.612584266   0.871165254  -0.946851114
H       -0.640650442  -0.362516379   4.769813532
H       -0.164596540   6.759160140   0.824522520
H        0.554098346   4.588032236   6.471210067
H        6.719295733   4.810486101   1.048631235
H        6.461800274   4.672681793   6.820105081
H        6.530711534   0.932849607   0.292046104
H        5.592740673  -1.064966293   6.548034514
H       -0.879168903   6.242798339  -0.740523556
H        1.564006153   5.741484948   5.526136231
H       -1.063269349   0.226201270  -0.814511376
H        0.238609633  -1.234892900   6.073638473
H        0.228526271   1.713892886   5.696932999
H        1.171388662  -0.442280793   1.034303518
H       -1.409687713   5.632783283   5.530580270
H        0.963537366   4.644785539   0.960046320
H        5.946068083   1.593733615   5.223208055
H        4.197807608  -0.922711264  -0.065057961
H        5.018135260   6.524209503   5.004760990
H        4.846671657   6.166705171  -0.831876429
H       -0.483651831   6.726582454   4.668090557
H        0.298302081   4.131816260  -0.508275153
H        1.001769724   0.869270714   6.921832256
H       -0.397681930  -0.981648148   1.143712904
H        5.863853576   5.136294690   4.523855875
H        6.519271162   6.246973236  -0.887217323
H        7.154814230   0.657750338   5.884994921
H        4.976480823  -0.088776590  -1.271644280
H       -0.039494113   0.641398125   1.384452058
H       -0.676992007   0.860175343   6.835729650
H       -0.688010707   4.395549696   0.809622324
H       -0.474028749   6.773006573   6.338604176
H        4.130998030   0.743764868  -0.095093872
H        5.989511996   1.313142267   6.884183395
H        5.689069373   6.899618989   0.440788884
H        6.672966759   6.471456532   5.207549059
