CRYSTAL
PRIMVEC
11.2820 0 0
0 11.1747 0 
0 0 11.3552
PRIMCOORD
96 1
Pb       2.908004479   2.781483806   3.170818017
Pb       2.976515244   2.721405898   8.721010731
Pb       2.887198384   8.427623867   3.061810038
Pb       2.770530098   8.319912576   8.734749426
Pb       8.635684643   2.852453257   2.883104467
Pb       8.559436262   2.826987259   8.574817251
Pb       8.515161024   8.409970762   2.786385598
Pb       8.314047877   8.375633498   8.561148803
Cl       3.421795223   2.646797794   5.917916277
Cl       3.023298186   3.002031221   0.279152589
Cl       2.810666235   8.092078827   5.867858550
Cl       2.437532655   8.117692997   0.241277523
Cl       8.382229646   2.942417592   5.703896530
Cl       8.681725906   2.191468196   0.058460156
Cl       8.397649655   8.138693659   5.632661724
Cl       8.848469792   8.753914253  -0.025940366
Cl       3.767600694   0.029531536   3.109944218
Cl       2.776014112  -0.050307354   9.050417357
Cl       2.291891221   5.601828064   3.155562643
Cl       2.791720500   5.524982753   9.026739249
Cl       7.837164588   0.059725965   3.195514880
Cl       8.544855381   0.030749282   7.966590992
Cl       9.461922457   5.643241726   2.701596932
Cl       8.423605358   5.610234033   8.243734981
Cl       5.744062538   3.447131109   2.893839205
Cl       5.787202713   2.417423159   8.883914997
Cl       5.677744269   7.553725625   2.883212362
Cl       5.545239199   8.140987980   9.251582951
Cl       0.072176019   2.218679331   3.284157029
Cl       0.121557956   2.622624741   8.629963795
Cl       0.006626213   8.917497957   3.300880556
Cl      -0.105551277   8.412935062   8.358437236
C        5.300879009   5.561811686   6.492253685
C        6.337037221   5.366489843  -0.186751140
C        5.408245667  -0.633962490   6.340591656
C        5.629110468  -0.354619048  -0.091000717
C        0.226908494   5.194608903   6.244892048
C       -0.473074675   5.482353119  -0.609436646
C        0.749638572   0.019268275   6.012061899
C        0.367424474  -0.022288163   0.312314103
N        0.620322530   5.457063141   0.404206903
N        0.010439137   6.457875777   5.484487969
N       -0.311297320  -0.088989548  -1.012981551
N       -0.644483092  -0.025967569   5.486604266
N        4.979859005   5.736770533   0.306701571
N        6.301212979   5.532502437   5.384778971
N        5.715674563   0.955830201   0.617302024
N        5.962635192   0.638153202   5.801359176
H        4.297309282   5.585915344   6.057177987
H        6.747025075   4.598444536   0.478083682
H        6.192293980  -1.398674400   6.298472458
H        5.644799932  -0.164238621  -1.167931912
H        1.130856004   4.711865689   5.855414199
H       -0.022048434   5.493957233  -1.605732085
H        0.924091542  -0.878324225   6.612834307
H        0.086107346  -0.906451160   0.893794859
H        4.690435433  -0.845264336   0.187952713
H        4.556507206  -0.929245873   5.720003856
H        6.964520164   6.264795532  -0.176293907
H        5.475991755   6.455666656   7.100579127
H        0.037717343   0.888175499   0.824201583
H        0.862665688   0.918305706   6.625700326
H       -1.070281424   6.386247812  -0.446241645
H       -0.644351956   4.544539578   6.109060089
H        6.246627398   4.985592016  -1.208971234
H        5.435201923   4.661881889   7.102399067
H        6.489075501  -0.966681412   0.202742106
H        5.085312178  -0.464373721   7.374061118
H       -1.089725937   4.586423707  -0.475426536
H        0.357981903   5.444112709   7.302475944
H        1.448729317  -0.003713710   0.142710236
H        1.438359475   0.048618374   5.159864738
H       -1.346486033  -0.051605631   6.251710691
H       -1.331486717  -0.089815592  -0.891396235
H       -0.113227261   6.269250260   4.478804705
H        1.216887116   6.310018693   0.337663537
H        6.364969464   0.500408714   4.854505988
H        4.944502509   1.585946547   0.343543666
H        6.195406819   6.350305990   4.756001362
H        5.048277168   6.171065130   1.248030959
H        0.829740355   7.088370271   5.588348017
H        1.247017697   4.645185465   0.283836767
H       -0.755781313  -0.858521974   4.880200077
H       -0.069377032  -0.948388914  -1.539301052
H        6.185387917   4.692674972   4.788259131
H        4.358662743   4.909355017   0.357508694
H        6.723393452   0.986810356   6.400509314
H        6.615654160   1.427668116   0.400438034
H       -0.065883989   0.730486610  -1.604465784
H       -0.813717564   0.802392709   4.892885014
H        0.228990522   5.429940940   1.359433293
H       -0.832838748   6.966684617   5.801987972
H        5.654839222   0.821531673   1.637407505
H        5.222998668   1.366020290   5.757421807
H        4.540725346   6.421729846  -0.326496897
H        7.256216747   5.533840674   5.767891895
