CRYSTAL
PRIMVEC
11.2820 0 0
0 11.1747 0 
0 0 11.3552
PRIMCOORD
96 1
Pb       2.992568508   2.752124201   2.781846290
Pb       2.922701099   2.717024240   8.459243257
Pb       2.769588535   8.320879575   3.090294599
Pb       2.792668784   8.316633513   8.640514022
Pb       8.619189667   2.935209371   2.792954379
Pb       8.546280401   2.753836480   8.507295545
Pb       8.570989927   8.437802840   3.032178545
Pb       8.429408757   8.350593041   8.656403848
Cl       3.573759503   2.771710288   5.589443552
Cl       2.422686440   2.636041861  -0.059741720
Cl       2.124375584   8.248348162   5.834629184
Cl       2.896517540   8.182111392   0.163862970
Cl       7.932395655   2.736196960   5.626431342
Cl       8.906556514   2.491643606  -0.003151359
Cl       9.089121860   8.310218227   5.824540995
Cl       8.136408223   8.696386377   0.150020120
Cl       2.649618896  -0.054686040   2.883480677
Cl       2.745100096  -0.057158177   8.355066196
Cl       3.483367440   5.546553555   2.738015733
Cl       2.568534602   5.515668800   8.726199887
Cl       8.673135184   0.095392832   2.843244248
Cl       8.553886600  -0.036109890   8.466845687
Cl       7.927039584   5.694203506   2.638783393
Cl       8.542861425   5.550595878   8.546773463
Cl       5.815978914   2.422241734   2.432411318
Cl       5.744958446   2.478743024   9.017154816
Cl       5.662791083   8.703819207   3.347125122
Cl       5.606693025   8.193745468   8.694106185
Cl       0.179280695   3.260786322   2.835342178
Cl       0.092827840   2.753842954   8.021778422
Cl       0.024240015   7.945923233   2.474461451
Cl      -0.030228072   8.341425554   8.931714733
C        5.615002048   6.038754374   6.130221240
C        5.751359537   5.312097859  -0.342263800
C        5.734134310  -0.497467172   6.263783903
C        5.117046102  -0.366898086   0.088092933
C       -0.025356867   5.236832394   5.445274985
C       -0.323857205   5.580051066  -0.246827719
C       -0.002551256   0.324109164   5.441597299
C        0.087881767  -0.394526540  -0.203972254
N        0.989796932   5.521766178   0.454676902
N       -0.041967962   5.905242619   6.773089248
N        0.062346595   0.472195010   1.008169040
N       -0.015497733  -0.406356373   6.736767984
N        5.680900033   6.599366855   0.407859936
N        5.803092739   5.133673329   4.960609795
N        6.409743208   0.367044222  -0.000343130
N        5.726029788   0.384258274   5.060271779
H        5.412445681   7.048844108   5.757266838
H        6.692544888   4.809341647  -0.092955169
H        4.807183053  -1.080318449   6.274340963
H        5.042382450  -1.041050073  -0.771872523
H        0.935379475   5.443933331   4.961256884
H       -0.134910903   5.605296793  -1.323098420
H        0.876061891   0.004524738   4.870756067
H        0.999801293  -0.175548372  -0.771147448
H        4.299611887   0.363346009   0.074897138
H        5.797799352   0.131884683   7.158296857
H        5.709068733   5.534483360  -1.412968843
H        6.530449691   6.031536779   6.731638956
H       -0.798954598  -0.174947946  -0.809007648
H        0.049280355   1.397598289   5.651004338
H       -0.845502070   6.490679002   0.067185088
H       -0.841861286   5.644705950   4.838643875
H        4.902486809   4.685254869  -0.046355512
H        4.769893437   5.674555544   6.726732733
H        5.102733837  -0.938964248   1.022421944
H        6.601300125  -1.163950663   6.200291100
H       -0.899932174   4.686757252   0.017631004
H       -0.150203065   4.161106178   5.597641256
H        0.079813450  -1.440449756   0.118726545
H       -0.921387922   0.085108327   4.895463166
H        0.839384162  -0.207326796   7.294305720
H        0.093324771   1.469022711   0.758844066
H        0.048580173   6.924934393   6.671893075
H        1.571997706   6.356376420   0.250557268
H        4.922164520   1.041469358   5.090304139
H        6.426602055   0.965752549  -0.848263940
H        6.551879916   5.469358829   4.322880065
H        6.467313759   7.235747448   0.168797409
H        0.743712882   5.589886314   7.372482950
H        1.517230522   4.669712699   0.179748158
H       -0.051737038  -1.422848206   6.585717411
H        0.879092041   0.278934846   1.620113811
H        4.940742453   5.074018167   4.391166390
H        5.728677879   6.433990588   1.421076961
H        5.676558002  -0.186100941   4.201642891
H        7.202758827  -0.293778276  -0.021466533
H       -0.801764141   0.317740259   1.562561723
H       -0.843143344  -0.158438894   7.311890272
H        0.852861200   5.483423092   1.472165176
H       -0.925342917   5.723843568   7.289014640
H        6.519208308   0.998606380   0.812270447
H        6.574881176   0.978354942   5.028178331
H        4.791513278   7.104694153   0.217233037
H        6.073608096   4.182872669   5.258967314
