CRYSTAL
PRIMVEC
11.2820 0 0
0 11.1747 0 
0 0 11.3552
PRIMCOORD
96 1
Pb       3.107442056   2.735298024   2.972227065
Pb       2.880756941   2.778556882   8.564202699
Pb       2.986219587   8.321528640   3.114538299
Pb       2.679880414   8.333897475   8.776432076
Pb       8.758968161   2.845640196   2.939787855
Pb       8.496521358   2.860484007   8.605506225
Pb       8.628227307   8.365325918   2.837477075
Pb       8.310371405   8.485065113   8.681789300
Cl       2.856667281   2.727489422   5.759997252
Cl       2.891681072   2.484485895   0.065082240
Cl       2.501340902   8.278778249   5.976642049
Cl       3.223322407   8.377654162   0.277071368
Cl       8.717089650   2.164839968   5.823478652
Cl       8.517577025   3.512824910   0.103173220
Cl       8.681430964   8.962615987   5.802962763
Cl       8.374332543   7.535466071   0.048567209
Cl       3.681492044  -0.059526976   2.970547813
Cl       2.185862475  -0.013594753   8.734509638
Cl       3.021643419   5.538604514   3.147490752
Cl       2.931761156   5.546222585   9.080619278
Cl       8.618721061   0.042274899   2.474725265
Cl       8.858520303   0.096480468   9.235016032
Cl       8.870073916   5.640237314   3.672273190
Cl       8.270318776   5.693192292   7.914785810
Cl       5.946271744   2.941326143   3.440123844
Cl       5.710591889   2.601951826   8.972696579
Cl       5.832461141   8.141830381   3.524930123
Cl       5.501534363   8.648022002   8.759764846
Cl       0.261485978   2.536946442   2.660340548
Cl       0.052390916   3.007645727   8.739797012
Cl       0.123864718   8.358498125   3.106629568
Cl      -0.165888585   8.071745851   8.801945919
C        5.033825063   5.567493546   6.372533274
C        5.294246218   5.377953177   0.577988036
C        5.415602820  -0.013124864   6.186338173
C        6.095824126   0.013489555   0.292318824
C        0.489776229   5.163407307   5.916987069
C        0.608080418   5.678391088   0.592360286
C        0.355671446   0.092105799   5.204644043
C        0.455818377  -0.476134927   0.475420144
N       -0.284415968   5.503079354  -0.590125387
N       -0.238726745   6.461200341   5.850158159
N       -0.032445635   0.831783020  -0.041253330
N       -0.292193256  -0.052562084   6.541062201
N        5.920420169   5.557579438  -0.766226242
N        6.123258234   5.537307487   5.358499285
N        4.772184790  -0.075338308  -0.386118203
N        6.279332748  -0.050469915   4.972991095
H        4.071299587   5.520455068   5.852903605
H        4.257378516   5.059231359   0.434425515
H        4.692539484   0.802644780   6.070006763
H        6.641069104   0.876957483  -0.103293794
H        1.044569222   5.031374406   4.982201893
H        0.174944978   6.436859724   1.253654643
H        1.062764276  -0.732699851   5.073015656
H        0.439194376  -1.206380921  -0.340910378
H        6.655282460  -0.907893314   0.094819723
H        6.051216601   0.156445295   7.062875087
H        5.327071921   6.335156013   1.108865670
H        5.115951307   6.498189859   6.944944922
H       -0.200630402  -0.789577263   1.292591045
H        0.876286471   1.053834175   5.176169491
H        1.593794279   6.000396004   0.241186530
H       -0.238007390   4.356296298   6.054678927
H        5.862289260   4.615223815   1.122272889
H        5.153100567   4.704210275   7.036647470
H        5.919986089   0.127049866   1.365418799
H        4.895004852  -0.973600333   6.272056736
H        0.685225366   4.720794414   1.118183864
H        1.185506936   5.196913405   6.762600275
H        1.478077407  -0.342761965   0.846697669
H       -0.425887094   0.053100505   4.437900965
H        0.406991158  -0.066327198   7.306136300
H       -0.969769693   0.733274366  -0.467864132
H       -0.923986422   6.440193436   5.070856492
H       -0.383003506   6.385638076  -1.124821527
H        6.802243524   0.830874783   4.866806363
H        4.883784633  -0.175961405  -1.400631642
H        6.065041156   6.361802451   4.723386597
H        5.388783783   6.238121624  -1.327119303
H        0.430058100   7.236267346   5.698478489
H       -1.224551166   5.181302908  -0.299684290
H       -0.862961420  -0.915109244   6.567583075
H        0.596118924   1.197275669  -0.769242099
H        6.073027822   4.684575567   4.764314023
H        5.937582157   4.661700452  -1.285381168
H        5.688484956  -0.184185055   4.132614052
H        4.190437163   0.771390327  -0.206942756
H       -0.057197042   1.524678718   0.734110475
H       -0.950984497   0.730019526   6.689491332
H        0.080605171   4.783433261  -1.240388087
H       -0.753087087   6.649752851   6.720165639
H        4.242027778  -0.911663916  -0.057989729
H        6.969264631  -0.818838324   5.035588206
H        6.886471852   5.915623214  -0.662303364
H        7.046262948   5.558526546   5.817791527
