CRYSTAL
PRIMVEC
11.2820 0 0
0 11.1747 0 
0 0 11.3552
PRIMCOORD
96 1
Pb       2.796418966   2.669850892   2.843230869
Pb       2.759860719   2.764803446   8.501649051
Pb       2.977394268   8.196540499   2.845615199
Pb       3.069310518   8.325701519   8.524507364
Pb       8.554331719   2.826549157   2.985126368
Pb       8.421469858   2.937191193   8.706974663
Pb       8.698112748   8.435066467   2.987920918
Pb       8.642335866   8.574408960   8.715780278
Cl       2.898298378   2.054006952   5.652183320
Cl       2.546450267   2.856528811  -0.021416468
Cl       3.381038016   8.780068638   5.604642690
Cl       2.327150456   8.106649804  -0.069248869
Cl       8.414200313   3.041134893   5.844268414
Cl       8.509640093   3.324995961   0.188725481
Cl       8.548426349   8.431710526   5.827889216
Cl       9.050627754   8.151314500   0.151169067
Cl       3.470906412  -0.160019791   2.455382316
Cl       2.494414466  -0.060696495   8.804840419
Cl       2.862311272   5.429630422   3.430844881
Cl       2.991650348   5.564688430   8.011575365
Cl       7.864822148   0.018198031   2.884297196
Cl       8.414610993   0.156853512   8.983692588
Cl       8.853250302   5.638647081   3.183522907
Cl       8.336393992   5.770470008   8.767363430
Cl       5.683400040   3.028894500   3.024503592
Cl       5.597742438   2.944358796   8.404280581
Cl       5.838433633   8.051008555   2.521002239
Cl       5.841635421   8.436724668   9.411296111
Cl       0.040169266   2.057666335   2.875178347
Cl      -0.030765610   3.409827423   8.500815959
Cl       0.235183194   9.094676574   3.154332502
Cl       0.208307242   8.151193840   8.129021474
C        6.030510573   5.976411426   5.787777787
C        5.151651775   5.324552383   0.006470475
C        6.109601399   0.022944747   6.373670417
C        5.544296190   0.780288117  -0.225810526
C        0.314131891   5.584254949   5.440916592
C        0.255977539   5.464338489   0.791340344
C       -0.476990453   0.388688777   6.170414382
C       -0.302309530   0.206103058  -0.271542293
N       -0.044664752   5.781569391  -0.634229242
N       -0.967118836   5.664696097   6.193918367
N        0.982157456  -0.038688660   0.441773627
N        0.658023936  -0.555792674   5.964669907
N        6.509450373   5.886834916   0.254427157
N        5.218842003   4.728088015   5.728552179
N        5.883994838  -0.525125188   0.404757071
N        5.405810184   0.041460042   5.060652815
H        5.719759914   6.639584381   4.972956457
H        5.178501787   4.732974601  -0.915609730
H        6.709563894  -0.890972323   6.430400130
H        6.328055958   1.033037435  -0.943736120
H        0.794684459   4.627598685   5.673379233
H       -0.303544318   4.566469387   1.073539255
H       -0.433451433   1.158194821   5.392815582
H       -0.091337778   0.258936323  -1.343742961
H        5.476610706   1.539545206   0.561437957
H        5.360306326   0.045683078   7.172941221
H        4.444142132   6.155933784  -0.096450588
H        7.083804083   5.705362527   5.669839475
H       -0.722991001   1.153255909   0.084976531
H       -0.379349011   0.844048557   7.162075506
H       -0.058779263   6.316951504   1.402393964
H        0.960470687   6.408606228   5.759730892
H        4.880825850   4.692943842   0.859306860
H        5.866744045   6.453497563   6.760451802
H        4.581566961   0.677477225  -0.738753361
H        6.754725115   0.904564584   6.440767675
H        1.331881550   5.294213857   0.889371675
H        0.090890947   5.650880693   4.372681447
H       -0.985777769  -0.622658008  -0.058458630
H       -1.413594747  -0.176185890   6.101489466
H        1.561128274  -0.063640657   6.028186132
H        1.643065256   0.738962528   0.263170045
H       -0.801203681   5.615817492   7.206305505
H       -1.034719999   6.044234061  -0.752391846
H        4.793849222  -0.792469346   4.975908197
H        6.755410173  -0.458486037   0.958032050
H        5.394351094   4.203630674   4.846827400
H        6.807696751   6.480768502  -0.532075227
H       -1.597667073   4.874611359   5.953155011
H        0.135711451   4.975616408  -1.266426579
H        0.597013740  -1.014610212   5.032084596
H        1.428033811  -0.923320984   0.138902104
H        4.215372274   4.946723785   5.771753650
H        7.214276810   5.131047554   0.360058329
H        6.076581727   0.057669145   4.269709465
H        5.968393786  -1.279626647  -0.305080276
H        0.834174774  -0.096689743   1.458903469
H        0.646922111  -1.306628958   6.679592779
H        0.522369029   6.585474957  -0.946272383
H       -1.475066356   6.549412950   6.004225832
H        5.143492054  -0.779712646   1.082330079
H        4.782287039   0.862654292   4.990944326
H        6.499387994   6.482438512   1.104005649
H        5.433014849   4.107727894   6.534986549
