CRYSTAL
PRIMVEC
11.2820 0 0
0 11.1747 0 
0 0 11.3552
PRIMCOORD
96 1
Pb       2.980180481   2.782159235   2.856200763
Pb       2.829944936   2.823999655   8.631729196
Pb       3.027283040   8.438873083   2.866538906
Pb       2.981823326   8.438050386   8.597200477
Pb       8.599505582   2.806248884   3.056579573
Pb       8.424255649   2.788442672   8.739202189
Pb       8.635410305   8.312114077   3.108541155
Pb       8.596509623   8.314039028   8.648404925
Cl       2.875835359   2.879606298   5.722687836
Cl       2.974114336   2.667275947   0.078042004
Cl       2.939840339   8.327204129   5.724642463
Cl       3.064562425   7.994651132   0.079045492
Cl       8.569225255   2.494742933   5.888940182
Cl       8.222963314   2.432912823   0.247091854
Cl       9.019324983   7.809192610   5.871889152
Cl       8.423877146   8.684748699   0.230065868
Cl       3.980960464   0.063738401   2.904801793
Cl       2.892949888   0.064571900   8.011661104
Cl       2.308352675   5.662574636   3.123334091
Cl       2.784725763   5.649800105   8.181259815
Cl       8.037472096   0.000964665   3.162070364
Cl       8.609954244  -0.014592209   8.889351286
Cl       9.104680449   5.609686851   2.430907277
Cl       8.742690777   5.601394151   9.507356421
Cl       5.810872019   3.330049325   3.270641881
Cl       5.630579736   2.700193717   8.343622381
Cl       5.800550563   7.597005053   2.992369228
Cl       5.783735181   8.044948924   8.683551989
Cl       0.195364343   1.924880779   3.017430350
Cl      -0.023673587   2.627467431   8.650309088
Cl       0.160233589   8.854643630   2.608369034
Cl       0.149952497   8.208727160   8.771771531
C        6.042305221   5.505019369   6.156636448
C        5.297855933   5.076288009  -0.011238948
C        5.993901662  -0.487618106   6.217636825
C        5.282582823  -0.139184150  -0.663195981
C       -0.350418749   4.917736852   5.805994567
C        0.613053779   5.211096703   0.019057384
C       -0.459582127  -0.486202500   5.917741643
C        0.441666553  -0.110203271  -0.329772563
N       -0.047169697   6.537556636   0.171573886
N        0.558404397   6.097558406   5.848168590
N       -0.798144064   0.051457968   0.483640619
N        0.368109315   0.746574643   6.041801294
N        6.182456198   6.273528589   0.051226264
N        4.747922638   5.569717575   5.423198985
N        6.201695609  -0.062418180   0.507235238
N        5.715341323   0.833657774   5.586982240
H        6.644486100   6.377102354   5.878704455
H        5.367676185   4.637651267  -1.013428446
H        6.801908176  -0.968572985   5.654019081
H        5.884925149  -0.181093641  -1.576034595
H        0.257805533   4.023732167   5.631922712
H        1.680160464   5.375782497  -0.156771007
H       -0.020523549  -1.125626162   5.143275615
H        0.152864295  -0.247299317  -1.376333636
H        4.646111877   0.750929835  -0.662033326
H        5.082378401  -1.093898039   6.179882817
H        4.271645628   5.398083514   0.193092426
H        6.554474953   4.579627522   5.869740186
H        0.982236331  -0.989727637   0.040500903
H       -1.476070094  -0.192130396   5.634699287
H        0.155665208   4.694392897  -0.832248562
H       -1.068260243   5.067487188   4.992307446
H        5.630706630   4.353921392   0.741614356
H        5.832518496   5.511685189   7.230463385
H        4.672118582  -1.043281999  -0.559330638
H        6.302498804  -0.317980683   7.254559122
H        0.463909621   4.642725759   0.943072613
H       -0.870351012   4.841532615   6.766107948
H        1.053686737   0.791604156  -0.216129309
H       -0.462711672  -1.002006447   6.883289477
H        0.422522289   1.239507563   5.129490462
H       -1.388422394  -0.800394142   0.445183891
H        1.111793621   6.160414427   4.971541814
H        0.046360194   7.098870075  -0.698841527
H        5.384614920   0.714623527   4.612885380
H        6.803752905   0.784544132   0.460412648
H        4.912926287   5.583628643   4.407687596
H        5.895945093   6.975699590  -0.655386634
H        1.233649986   6.026941874   6.636712703
H        0.350642107   7.083287205   0.952472178
H        1.324424932   0.522908596   6.370627088
H       -1.383953978   0.837281249   0.149538182
H        4.209541225   6.423737500   5.661480354
H        7.160023123   6.025469568  -0.177259038
H        6.568525491   1.423446796   5.580173818
H        6.843515876  -0.874611570   0.537227564
H       -0.563806123   0.243144777   1.471089953
H       -0.022255467   1.397541501   6.750317691
H       -1.049963394   6.414038163   0.371561039
H        0.005725383   6.960409649   5.965585575
H        5.667366513  -0.028360224   1.395632720
H        4.989042795   1.348102978   6.106235694
H        6.148110255   6.714773892   0.991060596
H        4.150954187   4.747068306   5.630962744
