CRYSTAL
PRIMVEC
11.2820 0 0
0 11.1747 0 
0 0 11.3552
PRIMCOORD
96 1
Pb       2.829396104   2.815416351   2.944367785
Pb       2.883373058   2.880955120   8.622620599
Pb       2.882342365   8.322952268   2.836406483
Pb       2.966946452   8.558949772   8.439335704
Pb       8.518002427   2.766223569   3.144380528
Pb       8.528818822   2.728399721   8.758989637
Pb       8.470035274   8.312142483   3.078734404
Pb       8.577184519   8.446396568   8.596754674
Cl       3.213176565   3.261738684   5.800693234
Cl       2.700470587   2.109648452   0.110234420
Cl       2.313785612   8.082881361   5.622836031
Cl       3.230980517   8.893876387  -0.066602330
Cl       8.360186100   2.476825485   5.972559144
Cl       8.610528253   3.227307008   0.276317184
Cl       9.310183188   8.341581314   5.809331222
Cl       8.424864613   8.094106157   0.135931864
Cl       3.067314404  -0.013671930   3.454159381
Cl       3.493722617   0.160195022   8.075633070
Cl       2.325021179   5.584474701   2.451602665
Cl       2.778234964   5.736605246   8.623092976
Cl       8.600577858  -0.045920720   3.101299400
Cl       7.737923018  -0.036115330   8.836320428
Cl       8.710842656   5.565565351   3.102490570
Cl       8.788901671   5.578009154   8.624627251
Cl       5.684157202   2.776668269   2.930310680
Cl       5.720202909   3.165855047   9.017514233
Cl       5.626522988   7.829428010   3.411736134
Cl       5.781565758   7.832845262   8.440407436
Cl       0.059568267   2.453227047   3.140633156
Cl       0.083929302   2.780513727   8.463049065
Cl       0.027283287   8.575965940   2.406654902
Cl       0.165068106   8.849526151   8.913556409
C        6.308991094   5.220998116   5.825675704
C        5.144624214   5.554775579   0.446707805
C        5.899671157  -0.595458542   5.663408859
C        6.217417541   0.079901017   0.687087852
C        0.112964479   5.033613302   5.558071588
C        0.470520303   5.592086286  -0.414522358
C        0.110873754   0.347020988   6.110287856
C       -0.680150011   0.448403676   0.011195682
N       -0.517806908   5.665228182   0.697685674
N        0.119147782   5.887087067   6.780051810
N        0.534193076  -0.407999564   0.115147813
N        0.155527424  -0.437109869   4.844323370
N        6.427715571   5.607135487  -0.310788714
N        5.012743015   5.944936660   5.945242755
N        5.256469885   0.174000921  -0.447440989
N        5.596897289   0.862378262   5.701477915
H        6.406492864   4.547792065   6.682775231
H        4.641399772   4.611025981   0.207220318
H        6.782930684  -0.744704143   5.033391578
H        5.652003004   0.024964977   1.623884063
H        0.959845160   5.320812721   4.925260325
H        1.072816262   6.505874643  -0.409644106
H        0.114870376   1.410425629   5.854988665
H       -0.543998871   1.128299951  -0.837341574
H        6.849417137   0.974210568   0.686321749
H        5.035733833  -1.117922549   5.240809373
H        4.523647251   6.405332848   0.143110633
H        7.124490872   5.952563416   5.820479164
H       -0.781633235   1.021190295   0.937895437
H        0.989950158   0.093087899   6.713066841
H       -0.078819341   5.492196480  -1.355388594
H       -0.829274634   5.199989847   5.025456792
H        5.367429120   5.607175318   1.517469194
H        6.301574839   4.652056852   4.890299983
H        6.831848486  -0.816643456   0.546794938
H        6.095549956  -0.932085908   6.687029676
H        1.111444591   4.719339761  -0.250519341
H        0.203211416   3.988448235   5.867600266
H       -1.553618594  -0.196094154  -0.140124650
H       -0.809393679   0.093103069   6.646906166
H        1.034342688  -0.246083527   4.323123913
H        1.381798392   0.178161583   0.206350934
H        0.037376510   6.880576142   6.524986410
H       -1.122150698   6.500149298   0.613355540
H        5.333214412   1.227456058   4.771406254
H        4.632696763   0.995589992  -0.354639198
H        4.998220739   6.490767605   6.825059944
H        6.260519727   5.569006730  -1.324570322
H        0.995120720   5.771488846   7.327130976
H       -0.030264497   5.718209892   1.604207258
H       -0.646393713  -0.204536680   4.230694774
H        0.626833922  -1.009566024  -0.726565464
H        4.225995914   5.269478206   5.946945094
H        7.041946063   4.802771393  -0.076543248
H        6.430042931   1.406737770   6.003252251
H        4.635659475  -0.660247877  -0.466327595
H        0.465436820  -1.052335649   0.929009609
H        0.113963900  -1.447548899   5.031877410
H       -1.145458708   4.838537693   0.701166790
H       -0.685344608   5.659877850   7.397835596
H        5.767165925   0.235158385  -1.344767947
H        4.814678861   1.041897393   6.351209841
H        6.966237535   6.475195353  -0.114895598
H        4.907805133   6.606640926   5.154916009
