CRYSTAL
PRIMVEC
11.2820 0 0
0 11.1747 0 
0 0 11.3552
PRIMCOORD
96 1
Pb       2.857272492   2.870253923   2.844636182
Pb       2.643262666   2.906083327   8.437757588
Pb       3.023446261   8.438391422   2.826318806
Pb       2.922686470   8.564739114   8.564780392
Pb       8.532807202   2.630617147   2.971178036
Pb       8.406146297   2.762878570   8.621890713
Pb       8.641997640   8.192742590   3.126725821
Pb       8.525455516   8.338421924   8.764814448
Cl       3.415440681   3.188271700   5.625338042
Cl       2.389738480   2.337914296  -0.100121288
Cl       2.896728468   8.304644335   5.697675308
Cl       2.937316473   9.251548714   0.011083036
Cl       7.694925920   2.864001379   5.772975230
Cl       9.003589950   2.659126780   0.085737956
Cl       8.787267375   7.818893926   5.984666813
Cl       8.642779746   8.122694758   0.254562588
Cl       3.363845761   0.096961692   3.328323237
Cl       2.489665495   0.135239068   7.828961207
Cl       3.030460290   5.655169202   2.626527125
Cl       2.956280314   5.722698385   8.514686693
Cl       8.612870941  -0.175607284   3.189899999
Cl       8.898964494  -0.019457897   8.825411146
Cl       8.812583716   5.400965256   2.645172817
Cl       7.919555162   5.528848631   9.106609869
Cl       5.710583098   2.838307203   2.225615096
Cl       5.490001836   2.386019115   8.806387789
Cl       5.811416188   8.154441689   2.797695221
Cl       5.705657243   8.503773031   8.580408379
Cl       0.089775724   2.436691656   3.414734987
Cl      -0.157569257   3.596313043   8.238373839
Cl       0.186256677   8.334041572   3.230838993
Cl       0.092061273   8.087792874   8.965698111
C        5.754370243   6.025025477   5.445374707
C        5.100685960   5.676526261  -0.316263052
C        6.169538959  -0.600767953   5.893409634
C        6.364597899  -0.338713356   0.193002309
C        0.233787551   5.226113606   5.189592788
C        0.511446859   5.677991439   0.453396021
C       -0.479708207  -0.142391781   6.154385795
C       -0.127249232  -0.239102470   0.769526764
N       -0.757418136   5.514485497  -0.308560095
N        0.361147032   6.336169564   6.175682058
N        0.271843076  -0.026524414  -0.651025844
N        0.545162685  -0.239324053   5.078368797
N        6.150027635   5.678279126   0.742192748
N        5.664876757   5.325794779   6.759400051
N        5.136357165   0.500106926   0.079949780
N        5.327168751   0.625911870   5.833473597
H        6.699252968   5.742885915   4.967434332
H        5.256897996   4.803983547  -0.959862336
H        6.788587835  -0.634519576   4.990449553
H        6.341344571  -1.093221323  -0.600395786
H        1.145998190   4.622416774   5.226859658
H        0.264522661   5.767776201   1.515761436
H       -1.470400768  -0.147573808   5.687865610
H       -0.831136348  -1.075930500   0.814006931
H        6.368798725  -0.824857313   1.174181315
H        5.511610375  -1.474239801   5.948887280
H        5.195794676   6.594636742  -0.905367251
H        5.722838073   7.103260996   5.623801286
H       -0.595410575   0.678094910   1.136535259
H       -0.318075128   0.789539502   6.706731030
H        1.012361272   6.587449911   0.101603782
H        0.095536203   5.661207602   4.195333918
H        4.122337170   5.624255951   0.171633054
H        4.901682019   5.716205279   4.830032629
H        7.243090818   0.307338401   0.082709941
H        6.800824415  -0.546874164   6.787202812
H        1.142886826   4.799520087   0.278247935
H       -0.630536616   4.613661825   5.463895695
H        0.775763269  -0.467785761   1.344624961
H       -0.367850220  -0.996799521   6.830272227
H        0.487601959   0.592026335   4.452569802
H       -0.557649743   0.155852574  -1.248616468
H        1.162250575   6.958820069   5.946626540
H       -1.388708444   6.324396449  -0.146914305
H        4.700604992   0.600726552   5.004379544
H        4.285898972  -0.089000726   0.134661209
H        6.434585945   5.591503565   7.401039956
H        7.086252570   5.784658050   0.331882581
H        0.514701690   5.968421617   7.123935392
H       -1.263196476   4.649940383  -0.028402887
H        0.405947205  -1.090919516   4.495233579
H        0.740555211  -0.865278328  -1.018140465
H        5.718268948   4.306972394   6.623191358
H        6.124936407   4.792393145   1.284171823
H        5.924304252   1.473807059   5.781736975
H        5.121829718   1.026967030  -0.814042629
H        0.938566633   0.769026307  -0.702973264
H        1.491950510  -0.282736329   5.479449422
H       -0.580355702   5.440103162  -1.318793401
H       -0.505390418   6.911605274   6.188018622
H        5.114052981   1.207229544   0.837940780
H        4.724327848   0.717747602   6.662892072
H        6.016638711   6.464166267   1.411843747
H        4.768371236   5.531680229   7.242699169
