CRYSTAL
PRIMVEC
11.2820 0 0
0 11.1747 0 
0 0 11.3552
PRIMCOORD
96 1
Pb       2.997971713   2.589366597   2.900173997
Pb       2.969019471   2.859540329   8.602047945
Pb       2.875215809   8.200975447   2.941197522
Pb       2.779213601   8.396943712   8.749313408
Pb       8.757033199   2.723247100   2.948274619
Pb       8.505092185   2.946922559   8.496464436
Pb       8.503850245   8.269208648   2.935466166
Pb       8.325309610   8.560308323   8.648443091
Cl       3.655894971   2.587593309   5.741409495
Cl       2.402041506   2.717884605   0.030680699
Cl       2.723432042   8.157940824   5.856830373
Cl       2.676277366   8.131395969   0.151190816
Cl       8.143535809   2.946117725   5.703179501
Cl       9.072150291   2.481193731  -0.012772908
Cl       8.521096882   8.502893956   5.816835888
Cl       8.573888717   8.752056363   0.128733274
Cl       2.677860362  -0.177481864   3.188850050
Cl       2.875887040   0.048058212   8.628141142
Cl       3.347259478   5.387312514   3.015366735
Cl       2.194953254   5.603990887   8.441657148
Cl       8.537353314  -0.074414538   3.102648740
Cl       7.704209972   0.200264938   8.484178704
Cl       8.134219474   5.457942403   2.584342047
Cl       9.039200981   5.764397703   8.709124640
Cl       5.867221875   2.309409256   2.535006471
Cl       5.692786081   3.561951932   9.110350346
Cl       5.691904075   8.701541188   2.704003002
Cl       5.565798604   7.957806433   8.407208582
Cl       0.248715850   2.696428265   3.585223776
Cl       0.063846689   2.503701629   8.244141079
Cl       0.044351053   8.033003089   3.213594633
Cl      -0.074086677   8.922749923   8.690867375
C        5.960866742   5.943019972   5.436962390
C        5.750225797   6.228501260  -0.120589103
C        5.295631256  -0.722850247   5.764654588
C        5.234684641  -0.237121197  -0.228750709
C       -0.135277805   5.354422400   5.548942705
C        0.107152058   5.695310327   0.717034424
C       -0.230938068  -0.309052078   5.770648573
C        0.226085737  -0.230980229   0.759912901
N        0.053126094   4.970848339  -0.584938201
N       -0.137994534   6.664742488   6.257051141
N        0.064954244   0.264619505  -0.636926118
N        1.069527626   0.408682849   5.880513893
N        5.604797399   5.015650260   0.730429245
N        4.758272060   5.602147577   6.252238378
N        6.564838358   0.066475777   0.367388627
N        6.322714205   0.322638147   5.497591351
H        6.670546688   5.110526751   5.492241519
H        6.630968987   6.100646732  -0.758366519
H        5.808427396  -1.668431498   5.964090520
H        5.387578958  -0.652836595  -1.230707501
H        0.013088693   5.541643143   4.481322895
H        0.163613111   6.769834481   0.517523351
H       -0.732302589   0.024125873   4.856403101
H        1.087850583  -0.904385645   0.792711721
H        4.655989888   0.691797081  -0.292411560
H        4.654749443  -0.812052106   4.883860409
H        5.862105220   7.101283904   0.532078911
H        6.405516504   6.855654187   5.845757511
H       -0.684404937  -0.767404229   1.044352276
H       -0.836429219  -0.079420755   6.653417207
H        0.999553370   5.371880025   1.265160326
H       -1.093806059   4.852526759   5.723631258
H        4.855978349   6.329803324  -0.740270064
H        5.642898536   6.100846126   4.401680925
H        4.724429808  -0.961862921   0.415733991
H        4.712179184  -0.416498967   6.639556456
H       -0.800984223   5.464604954   1.284493293
H        0.680583750   4.744097671   5.949915422
H        0.386395806   0.628087148   1.420382348
H       -0.030755566  -1.382190390   5.714229725
H        0.918812847   1.424966702   5.874917688
H       -0.076594542  -0.520548926  -1.305123244
H       -0.926816409   7.266922957   5.948645542
H        0.884441576   5.167344408  -1.173166639
H        6.935188856   0.081299589   4.693839195
H        7.117897799   0.681299367  -0.245515610
H        5.003616597   5.524355426   7.248447168
H        6.435859122   4.911238446   1.346339579
H        0.747844795   7.179330415   6.085785244
H       -0.775219442   5.256158459  -1.147375883
H        1.677484569   0.181689442   5.065667113
H        0.899425437   0.782788162  -0.943346075
H        4.343962359   4.697508833   5.952635145
H        5.514935506   4.177553945   0.139157274
H        6.928607936   0.447013104   6.327868277
H        7.127242467  -0.797087290   0.503397211
H       -0.735103427   0.921721427  -0.690137280
H        1.574772458   0.173169488   6.753686178
H        0.003094536   3.953662935  -0.450342846
H       -0.241344082   6.534230705   7.271341522
H        6.458336518   0.554143097   1.276711967
H        5.884574218   1.231091635   5.291155809
H        4.781418357   5.087414648   1.359905568
H        4.037418960   6.344708703   6.168223890
