CRYSTAL
PRIMVEC
11.2820 0 0
0 11.1747 0 
0 0 11.3552
PRIMCOORD
96 1
Pb       2.904971030   2.732943390   3.087275210
Pb       2.731832383   2.809061020   8.796289953
Pb       2.970725709   8.314008835   3.063671291
Pb       2.894654792   8.375658737   8.792805435
Pb       8.496508332   2.837458352   2.775187485
Pb       8.394445882   2.902188898   8.479554972
Pb       8.665161231   8.297635351   2.932167683
Pb       8.603352385   8.559565780   8.597082787
Cl       2.887407140   2.861569248   5.963621925
Cl       2.637185957   2.320692304   0.284230473
Cl       3.237994415   8.033208080   5.940291634
Cl       2.260887625   8.484458099   0.255893869
Cl       8.350595811   2.142991406   5.622123630
Cl       8.657104642   3.555642492  -0.057001262
Cl       8.366708367   9.053281910   5.789194199
Cl       8.678944348   7.743073034   0.087934722
Cl       2.782071810  -0.065540078   3.475755208
Cl       2.956934595   0.000412602   8.808434998
Cl       2.803534879   5.530943495   3.172646953
Cl       2.895701707   5.588565948   9.200309033
Cl       8.855404582  -0.043215041   2.456509166
Cl       8.157715862   0.176863028   9.193483807
Cl       8.193262017   5.554796670   3.565852699
Cl       8.275936474   5.774729038   8.109679225
Cl       5.719612076   2.295419406   2.468893948
Cl       5.571176912   2.975384642   8.962521987
Cl       5.848254234   8.479354825   3.174453183
Cl       5.773842099   8.327874252   8.932842240
Cl       0.071887812   2.590023470   3.137094034
Cl      -0.071592956   3.329636250   8.488101887
Cl       0.185086107   8.428145301   3.484946126
Cl       0.129305921   7.992212137   8.275338136
C        5.426111388   5.106970842   5.903433852
C        5.318869964   5.709657659   0.610615261
C        5.276719708   0.001747586   6.197206457
C        5.509125682  -0.645606960   0.594714494
C       -0.215747298   5.484074244   5.464662582
C        0.457191424   5.389341946   0.664057753
C        0.382198289   0.118198579   6.351591953
C       -0.319525630   0.010100778  -0.354254298
N       -0.177972198   5.761041038  -0.630708675
N        1.088806563   5.540136755   6.186325749
N        0.531929887  -0.046485835   0.866696697
N       -0.371787479   0.025754422   5.070738904
N        6.124862357   5.630450140  -0.640484662
N        6.084288886   6.441913916   5.877867681
N        5.451223859   0.443808839  -0.419273900
N        6.012807668   0.062605723   4.902006334
H        4.686660101   5.069270888   5.096686538
H        4.278558080   5.923733614   0.341247285
H        4.271661561  -0.388392750   6.009985659
H        4.624417696  -0.569297548   1.236589054
H       -0.011458404   5.435690839   4.391233622
H       -0.153743409   4.615636553   1.140701855
H        1.447653463   0.214152562   6.117620595
H        0.330545497  -0.089777979  -1.231837416
H        6.417034214  -0.512837028   1.192326278
H        5.218575954   1.012573815   6.616122926
H        5.726688969   6.506100522   1.243893082
H        4.934751708   4.975397912   6.873269588
H       -0.849352793   0.968831597  -0.371705014
H        0.200267941  -0.794232725   6.931650187
H        0.517996656   6.283709559   1.293083081
H       -0.787324177   6.385372391   5.708905746
H        5.385416699   4.747758852   1.132809197
H        6.194642734   4.337672077   5.760647981
H        5.531727594  -1.606611967   0.070147356
H        5.826495274  -0.660863923   6.875654162
H        1.462153807   5.005386119   0.463014131
H       -0.755251593   4.589536231   5.793923874
H       -1.046121745  -0.807952810  -0.307914972
H        0.039367475   1.004822484   6.898313586
H       -0.097723320  -0.823456690   4.537782264
H        1.215571270   0.736423323   0.865402096
H        1.657670679   6.359154970   5.904409137
H       -1.102582152   6.205332306  -0.468586479
H        5.536473365   0.663931690   4.210554227
H        5.376533363   1.359544803   0.043670009
H        5.376038126   7.191330186   5.959948132
H        6.074366908   6.511871288  -1.187926705
H        1.656633098   4.685064015   6.012230120
H       -0.303169858   4.934794555  -1.243320315
H       -0.203502267   0.857707510   4.469786122
H        1.069864010  -0.935443916   0.886899220
H        6.605194072   6.564881653   4.995521589
H        5.795658364   4.856687112  -1.250478340
H        6.108311974  -0.877287116   4.474584871
H        4.631271115   0.340304283  -1.046736563
H       -0.058955674   0.023200431   1.707839185
H       -1.385663428  -0.034153016   5.235262150
H        0.394925053   6.441049489  -1.151142047
H        0.941736152   5.611366524   7.201306670
H        6.304865119   0.443013883  -1.014856096
H        6.954999678   0.469459426   5.049757344
H        7.116225000   5.436425880  -0.432133981
H        6.768597612   6.509086520   6.653754114
