CRYSTAL
PRIMVEC
11.2820 0 0
0 11.1747 0 
0 0 11.3552
PRIMCOORD
96 1
Pb       3.007322702   2.635844938   3.118243148
Pb       3.139167961   2.914138389   8.710698171
Pb       2.665658859   8.274190250   2.889705132
Pb       2.886374341   8.392568843   8.588920424
Pb       8.670316311   2.837280903   3.020176583
Pb       8.704124039   2.917094468   8.731919309
Pb       8.331839793   8.410318524   2.861230264
Pb       8.532441621   8.529881843   8.578783027
Cl       3.411164603   2.264664291   5.945386271
Cl       2.997366686   2.853907446   0.226612169
Cl       2.657275944   8.324755559   5.751951686
Cl       3.074194793   8.104253949   0.048893677
Cl       8.121800958   2.972409673   5.889421537
Cl       9.394081656   2.832835305   0.188613688
Cl       8.175862977   8.189998652   5.752517943
Cl       8.401344711   8.397788954   0.025892679
Cl       2.573007946  -0.081277968   2.425918811
Cl       2.341150641   0.089652624   8.851045501
Cl       2.697515076   5.440203405   3.111331080
Cl       3.695860641   5.657617979   8.217728381
Cl       8.530290120   0.058067132   3.094950705
Cl       9.154775432   0.147022971   8.166862221
Cl       8.258835276   5.602731599   2.560043613
Cl       8.267204068   5.699366085   8.751313400
Cl       5.819933799   2.793421379   2.705371020
Cl       5.897270585   2.233679658   9.044458789
Cl       5.499819136   8.302072121   2.705610806
Cl       5.698118914   9.296563364   8.570978398
Cl       0.203268131   2.828147099   3.805425782
Cl       0.290018608   3.308661246   8.195446657
Cl      -0.127755131   8.022855787   2.613963434
Cl       0.088289541   7.784380988   8.704845305
C        5.358772559   5.574576430   5.109473755
C        5.963033906   5.581572557  -0.233871196
C        5.609911452  -0.366355216   5.096836176
C        6.049147512   0.000850042   0.571655651
C       -0.553295813   5.824537021   5.665593965
C        0.588071181   5.225577794   0.134013784
C        0.028745295  -0.603885354   5.416836351
C       -0.374300973  -0.564482593   0.103351700
N       -0.639905056   6.064949779   0.069178923
N        0.885892389   5.508443155   5.900654074
N        0.483312790   0.654397011   0.067139849
N        0.298957738   0.649240135   6.177174163
N        5.213430936   5.523618934   1.051672143
N        6.316793915   5.636150884   6.245488371
N        4.749813419  -0.080725993  -0.158058031
N        6.044777024   0.393499021   6.302565750
H        5.932730072   5.542279601   4.177451645
H        7.010699697   5.792392585  -0.004784441
H        6.276600276  -1.223107856   4.968684450
H        6.565757408   0.910265612   0.247289812
H       -0.628850186   6.480904564   4.792505388
H        0.616228263   4.717206901   1.103016242
H        0.749797754  -0.678556756   4.595862996
H       -1.048412495  -0.534082465  -0.757949675
H        6.637045562  -0.889906030   0.326716224
H        5.665663141   0.296528007   4.226469956
H        5.543198614   6.384921653  -0.847976080
H        4.719885891   6.462878895   5.140045183
H       -0.949957075  -0.560596194   1.034729637
H       -0.989223665  -0.547994132   5.016682761
H        1.456148020   5.886498465   0.030774932
H       -0.944765435   6.318694107   6.559391424
H        5.862822169   4.617786685  -0.746438221
H        4.752562259   4.669409743   5.218804381
H        5.847190840   0.042682887   1.644934168
H        4.582867271  -0.712466705   5.260745723
H        0.555180207   4.496975774  -0.681989736
H       -1.083697099   4.883155638   5.486716853
H        0.269429538  -1.449612769   0.056206775
H        0.133387342  -1.457507334   6.094640539
H        0.253929294   1.474240522   5.545811536
H       -0.108888122   1.506567859   0.111347337
H        1.437979839   6.366688691   6.079398987
H       -0.646976061   6.757491078   0.843549083
H        6.981276312   0.808880567   6.189243400
H        4.916232726  -0.175584071  -1.171675104
H        6.931074034   6.474924163   6.171730358
H        5.329005508   6.407577697   1.589563805
H        1.296155814   5.056956042   5.068499291
H       -1.487191665   5.488829201   0.156652740
H        1.223343604   0.640565225   6.629923092
H        1.048489701   0.669380804  -0.803150632
H        6.932192045   4.799700470   6.254173945
H        5.545856807   4.734429015   1.641009437
H        6.048635104  -0.224737332   7.138729302
H        4.177061934   0.765351870   0.001264943
H        1.146968042   0.649526895   0.863068865
H       -0.410333903   0.753401254   6.927739214
H       -0.676544251   6.586319391  -0.825018041
H        0.965971804   4.864437725   6.709393160
H        4.203712350  -0.907240789   0.138410469
H        5.388875893   1.171667762   6.482958497
H        4.208376088   5.380470653   0.902059362
H        5.803997353   5.676175145   7.140157864
