CRYSTAL
PRIMVEC
11.2820 0 0
0 11.1747 0 
0 0 11.3552
PRIMCOORD
96 1
Pb       3.031565385   2.898831361   2.964838553
Pb       2.987300626   2.947044158   8.615873910
Pb       2.859137244   8.421800551   3.059108226
Pb       2.718754529   8.573516167   8.799471327
Pb       8.764727164   2.689448528   2.930008082
Pb       8.608358564   2.699144817   8.556881817
Pb       8.497644908   8.159860891   3.033118692
Pb       8.330132084   8.335719983   8.701648528
Cl       2.999478964   3.448869570   5.787549255
Cl       3.022717409   3.049702049   0.115098945
Cl       2.221970144   8.257912444   5.966995901
Cl       3.305991323   8.761140199   0.301258277
Cl       8.754906659   3.221812107   5.755817095
Cl       8.714751780   2.068243662   0.085874692
Cl       8.950227600   7.806475958   5.987636263
Cl       8.071375240   8.887545503   0.319137303
Cl       3.092499301   0.013308188   3.144126659
Cl       2.761928348   0.162214107   8.501279549
Cl       3.731490650   5.624000103   2.736506896
Cl       2.327854197   5.740366986   8.796951287
Cl       8.773083081  -0.175968069   3.444814041
Cl       8.362524194  -0.086321289   7.764131467
Cl       8.539672313   5.415565314   2.077768745
Cl       8.864364193   5.534016544   9.207573409
Cl       5.903500953   2.391274849   2.831564602
Cl       5.823306322   3.213895385   8.808523686
Cl       5.719149259   8.592594416   3.683127284
Cl       5.487363304   8.206748247   8.159605403
Cl       0.239859174   3.128467739   2.628119462
Cl       0.136498246   2.811914867   8.500638296
Cl       0.026915746   8.656925242   2.771321462
Cl      -0.174906968   8.821896356   9.075646759
C        6.115004273   5.268388929   5.662893490
C        5.524770957   6.029964886  -0.352088017
C        5.102947285   0.340653669   6.269733983
C        5.525922065   0.230636859  -0.531356393
C        0.107029095   5.593036029   5.078738654
C        0.566790387   6.058067020   0.462841506
C        0.349944945   0.581430547   5.652432391
C        0.723696611   0.378890927   0.144088107
N        0.047214034   4.808639046  -0.157750131
N       -0.064948760   5.544358214   6.557148859
N       -0.512437706  -0.441184334   0.292898218
N       -0.259183840  -0.766702286   5.844893590
N        5.934219815   4.754138072   0.298286778
N        4.884784235   6.096243629   5.818241270
N        5.690978436  -0.255070776   0.868049783
N        6.208261445   0.182356032   5.284334342
H        6.182972453   4.584523252   6.514634952
H        6.248418756   6.256237493  -1.140426383
H        4.150946180   0.352351488   5.729828551
H        5.427678078  -0.639945973  -1.189765055
H        0.993888247   5.009988495   4.814146977
H        0.554226529   6.852942572  -0.291015564
H        0.900797426   0.575281520   4.705248782
H        0.762291915   1.105215254   0.961469680
H        6.408035517   0.820908676  -0.798630572
H        5.251467384   1.279164010   6.815183420
H        5.504777662   6.822717076   0.401773077
H        6.985952823   5.932915533   5.640427801
H        0.684368052   0.894383882  -0.821547016
H        1.027591697   0.778463235   6.489511368
H        1.590509766   5.873744321   0.809945528
H        0.224285110   6.639403651   4.780944876
H        4.526165012   5.894600090  -0.782322200
H        6.033564750   4.701775624   4.728362273
H        4.621634328   0.845669462  -0.583703874
H        5.138731565  -0.505215124   6.963041311
H       -0.084891251   6.317166736   1.302278304
H       -0.784462254   5.157260856   4.617611277
H        1.593303878  -0.286096943   0.182334481
H       -0.454798443   1.325477482   5.631673464
H        0.468368896  -1.506305072   5.904670678
H       -1.351517352   0.167270523   0.291038127
H        0.767644244   5.900135317   7.060512877
H        0.669677579   4.485789483  -0.910919669
H        6.209030694   0.942011798   4.581798818
H        6.528085329  -0.869916007   0.923773384
H        4.940068732   6.695232784   6.665846299
H        6.851791087   4.859753931   0.774114816
H       -0.218611693   4.580782823   6.898217608
H       -0.884544288   4.965299474  -0.586209405
H       -0.885696367  -0.985609854   5.054850457
H       -0.496674073  -0.992185025   1.169756374
H        4.053591476   5.479895553   5.866829017
H        5.990131838   4.006902466  -0.416504226
H        6.110972168  -0.712110356   4.762820630
H        4.866821848  -0.814793668   1.139517352
H       -0.588717793  -1.114573418  -0.493884394
H       -0.835409683  -0.797245123   6.700472543
H       -0.016926479   4.061979903   0.556825497
H       -0.882083170   6.116321900   6.827369019
H        5.789577441   0.533467866   1.532995854
H        7.120932060   0.169960378   5.769196397
H        5.240217656   4.479736269   1.006793397
H        4.781451899   6.723518055   5.009171064
