CRYSTAL
PRIMVEC
11.2820 0 0
0 11.1747 0 
0 0 11.3552
PRIMCOORD
96 1
Pb       2.754640945   2.754830726   3.070268287
Pb       2.879480896   2.901219551   8.767664188
Pb       2.866034670   8.402376625   2.953393768
Pb       3.020057305   8.410810959   8.648926577
Pb       8.380174250   2.723978455   2.958456578
Pb       8.409352301   2.881414003   8.704206956
Pb       8.539015867   8.306496262   2.938112078
Pb       8.622297816   8.364755868   8.668233254
Cl       2.379387273   2.371777067   6.038912783
Cl       3.263084600   3.265965462   0.346484177
Cl       2.664299139   8.885974496   5.820696275
Cl       3.132191473   7.980023651   0.117692507
Cl       8.617613928   2.640135634   5.849460013
Cl       8.046142667   3.248605579   0.177446147
Cl       8.617242178   8.671090542   5.818482398
Cl       8.585591070   7.697729866   0.121932257
Cl       2.636899728  -0.000535443   2.225456124
Cl       2.559802987   0.038977245   9.288199645
Cl       3.074915299   5.574452675   3.532051978
Cl       3.232282205   5.613546307   7.930332745
Cl       8.396166909  -0.059700891   2.644220753
Cl       9.193231235   0.061631322   8.752810187
Cl       8.108122660   5.533375755   3.273790570
Cl       8.168294236   5.626760216   8.116976802
Cl       5.561504712   2.840949955   3.374667225
Cl       5.616943932   2.477011143   8.137654256
Cl       5.703818143   8.477757899   2.611999860
Cl       5.827060003   9.162759658   8.646531782
Cl      -0.073286113   2.856259247   2.358387496
Cl      -0.029042297   3.171572129   9.121158817
Cl       0.070758909   7.996931355   3.156061183
Cl       0.176415165   8.082041414   8.422111011
C        5.665903966   6.510328284   5.765073843
C        5.629604591   5.572217129  -0.583225981
C        5.524740753  -0.079662398   5.347436324
C        5.892502265   0.645518407   0.137996641
C       -0.249838321   5.045012139   5.703211373
C        0.607337435   5.946493662   0.139660102
C       -0.105836212   0.080982396   5.097264749
C       -0.259248384  -0.822234119   0.240564893
N       -0.664170401   5.174153699   0.177655331
N        0.652366476   6.228320202   5.791267669
N        0.155880120   0.580349823  -0.047098610
N        0.374462525  -0.057860968   6.503018186
N        5.576887037   5.544157678   0.907005802
N        5.822033121   5.029892883   5.834522106
N        5.138649558  -0.638966102   0.141964741
N        6.745968885   0.047836297   6.190874003
H        6.299763431   6.882579044   4.956190240
H        6.461409350   6.213340874  -0.890042979
H        5.827655102  -0.066506036   4.294956990
H        6.964011303   0.423103700   0.114945347
H       -0.040486395   4.514744521   4.766934066
H        1.446380650   5.242374509   0.164679735
H        0.753835975  -0.039260558   4.427601219
H       -0.048550467  -1.429678324  -0.646841719
H        5.647437626   1.204558604   1.047619898
H        4.857754307   0.762154165   5.566939164
H        4.675480607   5.959892324  -0.950596069
H        5.981428456   6.933346234   6.724122967
H       -1.329255337  -0.832087258   0.467319508
H       -0.545759561   1.076445971   4.980676400
H        0.638102680   6.607020444   1.010471732
H       -1.287283273   5.395287337   5.714544170
H        5.788329427   4.549763672  -0.938973254
H        4.614239007   6.737294824   5.570137164
H        5.598958988   1.219893243  -0.747386995
H        5.030307061  -1.024951727   5.595097996
H        0.626766831   6.536833899  -0.781651894
H       -0.060639214   4.390390192   6.560845663
H        0.316272792  -1.183717842   1.098603933
H       -0.852796279  -0.693877743   4.901149776
H        1.062789935   0.696888416   6.692555536
H       -0.411721777   0.979919023  -0.809341333
H        0.510105197   6.858167639   4.976724060
H       -0.696400185   4.557986191   1.007902962
H        7.260764269   0.933226316   6.009499108
H        5.407559717  -1.248150632   0.938946622
H        6.793322714   4.775163296   6.065660011
H        5.416129780   6.486290802   1.302847366
H        1.642152461   5.948706250   5.797175508
H       -0.715955043   4.547850083  -0.646623058
H        0.865526144  -0.958209599   6.623901999
H        1.136008190   0.590281542  -0.382334509
H        5.583035203   4.563145891   4.940122315
H        6.458970555   5.191310172   1.309024120
H        7.398580404  -0.747773732   6.023665341
H        5.309355019  -1.164718953  -0.737104087
H        0.076805714   1.198299645   0.782282353
H       -0.399251613  -0.001294440   7.191443580
H       -1.483333724   5.809363106   0.184133095
H        0.479657831   6.780187489   6.653827946
H        4.125061744  -0.477639045   0.223813776
H        6.495619003   0.030521200   7.187626907
H        4.811853932   4.921578507   1.215796462
H        5.219109228   4.638096247   6.573464758
