CRYSTAL
PRIMVEC
11.2820 0 0
0 11.1747 0 
0 0 11.3552
PRIMCOORD
96 1
Pb       2.988726076   2.616513783   3.146999354
Pb       2.650542771   2.809293155   8.823194297
Pb       3.076246558   8.240002550   2.915144332
Pb       2.888507989   8.464723145   8.531671702
Pb       8.501592213   2.823749437   2.934672320
Pb       8.337368882   2.954129168   8.675770764
Pb       8.677599665   8.314255966   2.891506064
Pb       8.518529986   8.538714599   8.579985194
Cl       2.374366486   3.051678018   5.994974518
Cl       2.900542441   2.127181897   0.335739920
Cl       3.354921179   7.823467993   5.737200137
Cl       2.473936089   8.737427966   0.065129863
Cl       8.280849036   2.649891415   5.782538829
Cl       8.392737764   3.340317051   0.140401733
Cl       8.068422240   8.457380481   5.750530407
Cl       9.128709384   8.202496122   0.074024981
Cl       2.533393936  -0.188523098   3.384943783
Cl       2.236378319   0.049778534   8.220769737
Cl       3.495195137   5.380024208   2.541316784
Cl       3.156974161   5.635011846   9.191517300
Cl       9.166905675  -0.040035626   2.925859195
Cl       8.957181339   0.155759293   8.261417163
Cl       7.730800922   5.579942543   3.111156204
Cl       7.797634429   5.742513117   8.445115492
Cl       5.806539053   1.992823435   2.801248793
Cl       5.492437644   2.521786760   8.938014330
Cl       5.880312362   9.094776309   2.699120322
Cl       5.662714029   9.024446280   8.956977458
Cl       0.153592917   2.756200425   3.016109159
Cl      -0.138277496   3.632089354   8.768911879
Cl       0.263607658   7.763462530   3.277356480
Cl       0.045347146   7.813902182   8.248435885
C        5.170194054   4.800624277   5.916392068
C        5.770168123   6.409898320   0.099284151
C        5.138696463   0.125086670   6.104363842
C        6.759311228   0.096200829  -0.100225893
C       -0.775970668   5.363316360   5.581264334
C        0.376405320   5.100480083   0.667283862
C       -0.085409150  -0.729526701   5.780641664
C       -0.382923081   0.343791709  -0.327310472
N        0.293934021   6.108735032  -0.425851878
N        0.620044867   5.801593937   5.855606282
N        0.445001482   0.026242747   0.870274769
N       -0.065246289   0.760601467   5.740223557
N        5.555716197   4.934638276   0.086113538
N        6.046360083   5.996481398   5.809685787
N        5.321999713  -0.195210579   0.163027824
N        6.423281727   0.023633784   5.352694506
H        5.798701788   3.903155241   5.914964082
H        6.497064794   6.662301288  -0.677480598
H        4.672430649   1.090875366   5.877770157
H        7.077474999   0.904841613   0.562306427
H       -0.790904766   4.842607632   4.618785589
H        0.449581439   5.624386901   1.625586977
H        0.760839044  -1.102283181   5.196282175
H        0.256073382   0.311706711  -1.217280100
H        6.866768441   0.385456154  -1.149452161
H        5.350182707   0.053616757   7.175965032
H        6.141189242   6.691504946   1.089409200
H        4.488633898   4.803644777   5.060487281
H       -0.814886386   1.343492617  -0.200073339
H       -1.029831275  -1.071559709   5.349484273
H        1.265624034   4.481354864   0.506674836
H       -1.418788697   6.250046195   5.549827615
H        4.810725067   6.895907605  -0.107841381
H        4.603123789   4.868502290   6.850724962
H        7.332701833  -0.815314987   0.105121304
H        4.480174116  -0.691210114   5.787024087
H       -0.524717289   4.481050211   0.627223348
H       -1.090100042   4.693928724   6.386734076
H       -1.175466278  -0.406664357  -0.406577991
H       -0.006115481  -1.041311488   6.824745349
H       -0.092108480   1.128774673   4.772989679
H        1.185567820   0.736732237   0.997573239
H        0.941132348   6.429292512   5.100238041
H        1.134345138   6.704469935  -0.457141003
H        7.066777828   0.799429278   5.604398768
H        4.728592171   0.651708138   0.126998021
H        6.623505675   5.961400884   4.945490448
H        6.447657339   4.419042602   0.220228480
H        1.260237730   4.987780615   5.930681852
H       -0.522145910   6.740326644  -0.304120333
H        0.790556681   1.132647242   6.181642655
H        0.930304511  -0.881789312   0.756794270
H        6.687871519   6.052294850   6.627085157
H        5.149655801   4.629647351  -0.811118115
H        6.257932485   0.088519345   4.337027352
H        5.229851383  -0.631374767   1.099465893
H       -0.142692344   0.001923140   1.722433972
H       -0.880490118   1.140971996   6.244264903
H        0.206014958   5.635095839  -1.340691671
H        0.643032322   6.346869230   6.740063430
H        4.985636075  -0.872881122  -0.542213543
H        6.909662837  -0.876632095   5.538292345
H        4.897264938   4.686726914   0.845739601
H        5.464633904   6.849824430   5.785022037
