CRYSTAL
PRIMVEC
11.2820 0 0
0 11.1747 0 
0 0 11.3552
PRIMCOORD
96 1
Pb       2.874446052   3.016580982   3.057030704
Pb       2.922062472   2.826815463   8.757660973
Pb       2.858893198   8.516929735   3.073933632
Pb       2.991180153   8.286737012   8.656669544
Pb       8.419550692   2.832187744   2.857540249
Pb       8.526832116   2.651066276   8.616381007
Pb       8.496890263   8.442414732   2.847790463
Pb       8.599406552   8.148170878   8.502600773
Cl       3.011936956   3.360618922   5.893938613
Cl       3.365561748   2.576391784   0.246248492
Cl       2.600123778   7.740987161   5.842104004
Cl       3.348110689   8.687376799   0.223791158
Cl       8.650281414   2.323447871   5.700185448
Cl       8.323141144   2.387168602   0.072238159
Cl       9.110819340   8.105937688   5.630722572
Cl       8.548008419   8.490043134   0.002091336
Cl       3.250883691   0.225567356   3.623730891
Cl       2.638950546  -0.046982502   8.379356375
Cl       2.268884744   5.798587833   2.551818456
Cl       2.910171744   5.566052135   9.376477891
Cl       7.540051497   0.045656312   2.951934552
Cl       8.808654435  -0.180659439   8.574911844
Cl       9.034549604   5.649521087   2.683769708
Cl       8.813036373   5.424097650   9.123480534
Cl       5.683852785   3.598211336   3.179295383
Cl       5.680638926   2.633526227   8.336484999
Cl       5.660778142   7.696680026   3.150473695
Cl       5.759291550   7.956549267   8.133336372
Cl       0.054834381   2.686928215   3.274813472
Cl       0.081974522   2.463171841   8.663875143
Cl       0.085847370   8.853812930   2.366274424
Cl       0.167287169   8.115203318   8.934341077
C        6.674650638   5.315791784   6.120631653
C        6.119872606   5.566670319  -0.222821710
C        5.788950400  -0.468082831   6.159146216
C        5.886001446  -0.233035450  -0.756849109
C       -0.215717021   5.114599489   6.341972016
C        0.102849460   4.745068917   0.137865514
C       -0.110498007  -0.435381015   5.776912085
C        0.105468911   0.612452870   0.463702298
N       -0.186767020   6.204559560   0.168725430
N        0.057512979   5.885567113   5.096626411
N       -0.033290775  -0.382936779  -0.638362713
N        0.594177532   0.876094055   5.875286572
N        4.887782567   5.651737489   0.615892598
N        5.315015921   5.802266190   5.757080039
N        5.331946893   0.026299927   0.603839795
N        5.720072536   0.918633553   5.618823437
H        7.396251899   6.105500022   5.881905825
H        6.601316854   4.598325403  -0.044210966
H        6.069085028  -1.146723072   5.345484502
H        6.323065743  -1.236621498  -0.766910554
H       -1.190941860   4.626342662   6.243261340
H       -0.471365121   4.301570970  -0.680256890
H        0.091271757  -0.871605083   4.791399485
H        0.162930696   1.610756140   0.019857358
H        6.656989289   0.512746478  -0.964658767
H        4.805450811  -0.732558774   6.561766776
H        6.793841459   6.383330705   0.058175510
H        6.892213869   4.412175986   5.545336523
H        1.011817107   0.381374424   1.033259470
H       -1.182036864  -0.254824063   5.904586573
H       -0.196085626   4.317277859   1.099861438
H       -0.218894542   5.810893218   7.188014315
H        5.826638985   5.663044442  -1.273128989
H        6.690577467   5.101012918   7.193566855
H        5.068540891  -0.157685291  -1.483450003
H        6.541653256  -0.493081649   6.954928843
H        1.176134917   4.609616558  -0.026149109
H        0.570699216   4.365267574   6.469607397
H       -0.773835648   0.534139946   1.109736206
H        0.257337014  -1.094244827   6.571459258
H        0.292476786   1.515087591   5.111683667
H        0.772603200  -0.355594756  -1.284137697
H       -0.667773552   6.622715620   4.988123386
H       -1.191864842   6.380472203   0.312244464
H        5.028061330   0.965116978   4.852368835
H        6.077302411   0.037937365   1.333076567
H        5.311978793   6.196885953   4.797533722
H        5.118467974   5.590415274   1.617657216
H        0.041507934   5.286011871   4.261246012
H        0.072813384   6.675721600  -0.720478323
H        1.611318801   0.758574268   5.794786478
H       -0.882672796  -0.216136456  -1.220778680
H        5.045419170   6.567570250   6.398241503
H        4.239783865   4.882036791   0.389628693
H        6.646035967   1.219934826   5.268920497
H        4.649101922  -0.717797973   0.828294782
H       -0.112205084  -1.336507572  -0.259890473
H        0.399053217   1.338781961   6.786348975
H        0.310585831   6.669075923   0.943458245
H        0.978129343   6.358902733   5.160348739
H        4.825892576   0.931000621   0.623768795
H        5.460416996   1.585644788   6.370380384
H        4.383217154   6.541545873   0.462974786
H        4.604848232   5.051192721   5.815253332
