CRYSTAL
PRIMVEC
11.2820 0 0
0 11.1747 0 
0 0 11.3552
PRIMCOORD
96 1
Pb       3.094438945   2.840922143   3.000009314
Pb       3.012946360   2.968987603   8.766536821
Pb       2.876799568   8.403020726   2.866446017
Pb       2.724575874   8.502680906   8.626012426
Pb       8.704804781   2.622361533   3.138019033
Pb       8.778250765   2.617038400   8.763508426
Pb       8.514497908   8.206929544   2.928815441
Pb       8.415264837   8.231720372   8.655754363
Cl       2.968745778   2.951221084   5.882592879
Cl       3.443711922   2.429581408   0.204086080
Cl       2.768760869   8.346085041   5.761769916
Cl       3.028724053   9.101757434   0.082851026
Cl       9.231252990   2.441309902   5.955173756
Cl       8.501664447   2.738703439   0.296976589
Cl       8.573708571   8.241808242   5.804181322
Cl       8.163446809   7.744823765   0.147539684
Cl       3.302615668  -0.016655374   3.509706154
Cl       2.547216624   0.163862593   8.420881357
Cl       2.382840470   5.578870546   3.147482930
Cl       3.100049571   5.733154221   8.533523726
Cl       7.996340419  -0.169433425   3.155980317
Cl       8.335084182  -0.151148184   8.818506873
Cl       9.419606764   5.426218296   3.044926585
Cl       8.516754510   5.410287749   8.820671246
Cl       5.891685077   3.588968437   3.137715903
Cl       5.889649832   2.845106800   8.883955019
Cl       5.689456313   7.848725387   3.304098579
Cl       5.569937064   8.683377820   8.242797442
Cl       0.258231328   2.113624333   2.850095698
Cl       0.270717792   2.862378229   9.537678342
Cl       0.078746159   8.793931940   2.833529225
Cl      -0.060208369   8.204888151   8.528627015
C        6.024458765   5.478576669   6.301722129
C        5.046479416   5.916089747   0.125613972
C        5.789580687   0.594114345   6.124943621
C        6.129208692  -0.142455016   0.349548606
C        0.099554883   5.366105666   6.260344343
C        0.498843455   6.181050590   0.020583762
C       -0.315562503  -0.523018709   5.821056485
C       -0.483080833  -0.327475456  -0.136706309
N       -0.706473121   5.308319207   0.055781420
N        0.057135537   6.601516793   5.430161788
N        0.798244125   0.312167837   0.274227778
N        0.747809497   0.519097115   5.717401354
N        6.191845311   4.962092857   0.154802209
N        4.747144361   5.642727305   5.551552754
N        5.425681311   0.010793059  -0.956743803
N        5.808758949  -0.738324111   5.458653949
H        6.662121779   6.346587329   6.100662462
H        5.052477177   6.442281352  -0.834618867
H        5.746635569   1.369572778   5.351259026
H        5.879267057  -1.122528050   0.770212449
H       -0.810162438   4.787231177   6.069197998
H        1.195774901   5.835654202   0.792965196
H       -0.914216279  -0.504601620   4.905089908
H       -0.370844697  -0.719063819  -1.153286622
H        5.793140054   0.657414011   1.017575025
H        6.700392759   0.696296625   6.724013642
H        5.173249870   6.623546881   0.952696974
H        6.513022072   4.562150972   5.951768240
H       -1.271664318   0.432550072  -0.107498964
H       -0.945129168  -0.297056237   6.688318278
H        0.191665955   7.211418523   0.230149219
H        0.154192056   5.660063667   7.313625809
H        4.118691955   5.344115650   0.238141584
H        5.795658184   5.404610645   7.368862595
H        7.205223819  -0.060014642   0.172613039
H        4.899374922   0.652883994   6.760796017
H        0.951599001   6.112054882  -0.974647387
H        0.984411985   4.786352215   5.974714629
H       -0.704838755  -1.139124723   0.564600349
H        0.170990984  -1.494217324   5.945830854
H        0.318739138   1.446100178   5.587808175
H        1.043927139   1.068073647  -0.384002549
H       -0.776679124   7.178096115   5.660515669
H       -1.135875399   5.300610553   1.004754234
H        6.623906530  -0.810563613   4.821010278
H        4.407346127  -0.034114786  -0.824579236
H        4.929316030   5.746998345   4.543398056
H        7.078047900   5.477888078   0.043659797
H       -0.006056586   6.364185619   4.429659231
H       -0.467184501   4.339236024  -0.214057873
H        1.376325854   0.349976424   4.913339302
H        1.572539215  -0.377184260   0.287373929
H        4.224386232   6.481793903   5.852473560
H        6.136217125   4.264349168  -0.609398704
H        4.960852770  -0.852740852   4.877592897
H        5.684888095  -0.737860336  -1.625295669
H        0.706515398   0.753194785   1.212908789
H        1.339027979   0.534621112   6.570506308
H       -1.423321083   5.620963762  -0.622543128
H        0.907050842   7.179498912   5.568670275
H        5.648846913   0.924617488  -1.399693328
H        5.843614417  -1.497007833   6.160582190
H        6.220474511   4.445058161   1.056121677
H        4.126115138   4.819829134   5.683719594
