CRYSTAL
PRIMVEC
11.2820 0 0
0 11.1747 0 
0 0 11.3552
PRIMCOORD
96 1
Pb       2.918043658   2.477597557   2.903509883
Pb       2.900189152   2.767921389   8.561148902
Pb       2.908820270   8.142232818   3.068218769
Pb       2.876864042   8.313011641   8.674656901
Pb       8.557336587   2.821534918   2.815198711
Pb       8.515011623   3.166125883   8.502831323
Pb       8.521173463   8.411595831   3.064618075
Pb       8.403105202   8.562530724   8.678995468
Cl       2.336843904   2.687454862   5.743250509
Cl       3.235060361   2.702731451   0.056305735
Cl       3.240626480   7.956436534   5.916758792
Cl       2.685266889   7.864834526   0.201265529
Cl       9.199427340   2.856589988   5.658014457
Cl       8.158485360   2.757446171  -0.077465287
Cl       8.268538096   8.698453798   5.888224245
Cl       8.630906503   8.547258092   0.194248454
Cl       2.395291669  -0.286580232   2.536621670
Cl       2.354175556  -0.035491718   8.949059985
Cl       3.028672137   5.303442888   3.226598209
Cl       3.469246393   5.525361541   8.909188110
Cl       8.730199541   0.042079380   3.059591266
Cl       8.650427723   0.273135100   8.470546625
Cl       8.604303443   5.607944399   2.936438235
Cl       7.440658594   5.846004955   8.554453528
Cl       5.773506476   2.549030936   3.569435197
Cl       5.772304808   2.484071973   7.983344385
Cl       5.712397494   8.362943132   2.733245234
Cl       5.609776517   9.184074742   9.057436414
Cl       0.163783026   3.077813793   2.463633571
Cl       0.143842158   3.325829660   8.896905690
Cl       0.080495586   7.992246977   3.127322328
Cl       0.006148368   8.351041507   8.624113263
C        6.201127586   5.573803921   5.233095699
C        5.735523826   5.426192691   0.656919312
C        5.194228979  -0.331012733   5.653707563
C        5.749470697  -0.112638068   0.725959448
C       -0.009497035   6.029475471   6.142056799
C       -0.470555681   5.823768754   0.049485448
C        0.218507492  -0.546284132   5.591330262
C       -0.237065782   0.437627712   0.085331706
N        0.856611659   5.149142767   0.125984442
N        0.048029194   5.191372376   4.911797925
N        0.196054000  -0.985901501   0.199910022
N        0.057586074   0.401457808   6.732928389
N        5.746493023   6.690769499  -0.130840935
N        4.980847401   5.181364412   5.995739446
N        5.710369172   0.709620535  -0.516662427
N        6.549976160   0.281254714   5.731115966
H        6.923198417   4.752847659   5.281282798
H        5.009444251   4.744745408   0.199940797
H        5.135390580  -0.925118923   4.734529685
H        4.824343830  -0.694488255   0.792159964
H       -1.025083627   6.430910095   6.239800007
H       -0.488776512   6.456276706  -0.844898221
H        1.203886591  -0.388240060   5.138808645
H       -0.956912883   0.521656029  -0.735885184
H        5.835843829   0.557505317   1.589517834
H        4.450915853   0.475625049   5.646091979
H        5.443838272   5.660566567   1.685491634
H        6.618138488   6.478604513   5.687803330
H        0.647595775   1.052843400  -0.110513696
H       -0.566328861  -0.346882402   4.852899290
H       -0.606408664   6.430644915   0.950066400
H        0.706200700   6.851260801   6.040437798
H        6.739188125   4.990807342   0.630673960
H        5.910937972   5.763076622   4.195864491
H        6.616638176  -0.779012804   0.678526036
H        5.055865679  -0.977044154   6.526602685
H       -1.247335455   5.051641062  -0.000920256
H        0.240577030   5.403280425   7.006737931
H       -0.701586137   0.726244486   1.032655202
H        0.126850299  -1.567156115   5.976868141
H        0.143928102   1.376453160   6.417099130
H        0.642590724  -1.306822001  -0.670313958
H       -0.242295653   5.741572023   4.087730431
H        1.620942860   5.845600620   0.176786199
H        6.699590681   0.905038970   4.920436250
H        4.883402545   1.336071338  -0.501543675
H        5.208665410   4.959608765   6.975655122
H        4.807579987   7.128382488  -0.131592399
H       -0.586311412   4.374231620   4.998468133
H        0.990379975   4.554584626  -0.708868605
H        0.784814773   0.236545817   7.459245734
H       -0.617002049  -1.605329971   0.372110031
H        4.530265561   4.357480852   5.573821110
H        6.033672708   6.505155017  -1.108332031
H        7.281236782  -0.453671467   5.745007457
H        5.662994315   0.092153186  -1.345756207
H        0.877561369  -1.085311963   0.973362059
H       -0.869432678   0.301203878   7.195619195
H        0.886729488   4.527531319   0.957416892
H        0.998601173   4.840165016   4.726256393
H        6.553390803   1.312043399  -0.582154220
H        6.630602482   0.858008807   6.585465778
H        6.408574370   7.373504742   0.266599529
H        4.291934707   5.958684430   5.997990029
