CRYSTAL
PRIMVEC
11.2820 0 0
0 11.1747 0 
0 0 11.3552
PRIMCOORD
96 1
Pb       2.878817093   2.756328575   2.884846552
Pb       2.991903960   2.713247528   8.641400822
Pb       2.816691115   8.290384188   2.888156658
Pb       2.879963196   8.292366148   8.609243199
Pb       8.422588648   2.874987191   3.006557733
Pb       8.617655964   2.857608222   8.741853413
Pb       8.382963673   8.446042252   2.960322201
Pb       8.619101130   8.521057882   8.661252504
Cl       3.115627362   2.453119691   5.756106987
Cl       2.616233051   2.844344325   0.081513588
Cl       3.043131389   8.225815125   5.763285693
Cl       2.290702719   8.598883712   0.094822581
Cl       8.568485101   3.639331910   5.925533511
Cl       8.728323108   2.267428000   0.244559672
Cl       8.357648667   7.964355555   5.810908584
Cl       8.501342770   9.182957198   0.141586606
Cl       2.337797837  -0.048675719   3.082684502
Cl       2.629967080  -0.085553209   8.251666529
Cl       3.453626709   5.524491819   2.598230630
Cl       3.731279507   5.501066887   8.691468978
Cl       8.999772600   0.042858094   3.412154419
Cl       9.005653820   0.134000365   8.032974723
Cl       8.248129698   5.585478691   2.118845914
Cl       8.223099385   5.674049535   9.358637557
Cl       5.657334530   2.405372449   2.462922306
Cl       5.813545915   2.487301911   9.124159898
Cl       5.601608893   9.128438846   3.035535442
Cl       5.782106815   8.796644738   8.362889933
Cl      -0.023220826   2.972184334   2.914149363
Cl       0.155776641   3.173513684   8.540405221
Cl      -0.060465337   7.978556540   3.144340407
Cl       0.094118436   7.753941377   8.329264975
C        5.521261746   5.474876566   5.290867588
C        5.477623239   6.641682178   0.110750426
C        6.173725110   0.591572157   5.796535521
C        4.819414708  -0.320003159  -0.075035241
C        0.951501124   5.236496248   5.592123047
C        0.479035143   5.830296017   0.157269769
C        0.121936535  -0.735466660   5.837433380
C        0.130576248   0.212380432  -0.383758730
N       -0.386635517   4.619247389   0.075895027
N       -0.327440058   5.991668614   5.710579494
N       -0.058976624  -0.356464194   0.979886786
N        0.163792556   0.756541638   5.756782918
N        5.649125036   5.161805209   0.166263846
N        6.164066481   5.748480416   6.607385680
N        6.164520537   0.289728631   0.113168706
N        5.092241572  -0.432448428   5.836323825
H        6.284756217   5.539419235   4.506410853
H        6.115460827   7.034516088  -0.686697773
H        7.134671215   0.080647579   5.673700249
H        4.779358418  -0.769278331  -1.071628479
H        0.998989729   4.505198293   6.404058036
H        1.519812978   5.503154321   0.250420097
H        0.786327768  -1.138773495   5.069670556
H        1.011519595  -0.257160573  -0.833042889
H        4.064130000   0.469204163   0.016237813
H        6.158993017   1.148938124   6.739434181
H        5.771831380   7.053598300   1.081988351
H        4.740028542   6.223168162   5.125762791
H        0.284231579   1.291099414  -0.292130167
H       -0.909335633  -1.057055583   5.665851298
H        0.184098395   6.411176471   1.037265778
H        1.781476422   5.947344423   5.665485045
H        4.423766960   6.861066685  -0.087019536
H        5.080238425   4.471441413   5.315496496
H        4.668766527  -1.076747295   0.698248851
H        5.982255058   1.261038291   4.950663471
H        0.339483859   6.419396348  -0.754680664
H        0.961549912   4.729197147   4.623223650
H       -0.765925974   0.005874420  -0.977668025
H        0.458781138  -1.031415788   6.833733785
H       -0.201435317   1.080948625   4.848985633
H        0.754824314  -0.161948621   1.600825889
H       -0.330674488   6.561172077   6.582258842
H       -0.270373567   4.017043864   0.911327586
H        5.236676192  -1.093874720   6.625451073
H        6.346506389   0.978042755  -0.637961331
H        6.592862019   6.689154444   6.609492795
H        6.615176710   4.937099196   0.452792259
H       -1.142587794   5.353976957   5.734357049
H       -0.150722968   4.058939324  -0.764151997
H        1.128792537   1.121647376   5.858293104
H       -0.157269707  -1.378113352   0.936892238
H        6.932297631   5.078081437   6.772470843
H        5.454493623   4.725496036  -0.746900207
H        5.079568550  -0.989044707   4.960393287
H        6.922691035  -0.420162952   0.113136904
H       -0.904337352   0.012799908   1.446028660
H       -0.416786025   1.160847345   6.506424895
H       -1.381385072   4.877436734   0.016099552
H       -0.435152849   6.648927154   4.915144628
H        6.198407915   0.818746930   1.003124502
H        4.169768218   0.006734061   5.964363060
H        5.005394941   4.763994699   0.869898130
H        5.470171342   5.688976099   7.380860214
