CRYSTAL
PRIMVEC
11.2820 0 0
0 11.1747 0 
0 0 11.3552
PRIMCOORD
96 1
Pb       2.861949670   2.896802140   2.958530176
Pb       2.990000457   2.831620330   8.733440091
Pb       2.898954996   8.466758823   2.768332594
Pb       2.884264402   8.444876624   8.401296179
Pb       8.596042535   2.840314585   3.017925305
Pb       8.570646889   2.734768033   8.758486934
Pb       8.418024870   8.433376394   2.809050080
Pb       8.460908740   8.353094412   8.430608428
Cl       3.117088970   2.386588905   5.807408823
Cl       2.996397798   3.455324989   0.141027225
Cl       3.047360007   9.288191704   5.518428368
Cl       2.449042080   8.072029967  -0.134921157
Cl       8.221879553   2.578220876   5.854941039
Cl       8.861417627   3.388523608   0.167505525
Cl       8.167299300   9.021539214   5.569894769
Cl       8.758092425   7.857446189  -0.084114508
Cl       2.474501830   0.088700047   2.319770324
Cl       3.101447081  -0.003733479   9.221152382
Cl       3.326627253   5.667017845   3.486941074
Cl       2.668379523   5.594572928   8.020568429
Cl       9.004820819   0.083348414   2.477654423
Cl       8.402065884  -0.112658296   9.321162905
Cl       7.885727829   5.642117725   3.263571234
Cl       8.826804286   5.511546877   8.194613173
Cl       5.701260919   2.593609831   3.063676274
Cl       5.802687349   3.405388953   8.885729528
Cl       5.678643093   9.187404960   2.521378734
Cl       5.666192718   8.207143403   8.901164816
Cl       0.064755746   3.103716091   3.679036994
Cl       0.148671214   2.955285531   8.729828462
Cl       0.034516345   8.541519842   3.076483383
Cl       0.034098132   8.429791026   8.518936469
C        5.740872692   6.019169762   6.244993950
C        5.399176155   6.144969877   0.570145820
C        5.777491115   0.118430632   6.725266849
C        5.754050873   0.749036681   0.332476488
C       -0.021510971   6.223631871   5.343785684
C        0.247626710   5.607862792   0.787638019
C       -0.255709739   0.131212273   6.167400825
C        0.086127757   0.397348078  -0.356661746
N       -0.033306717   5.675723573  -0.676130429
N        0.058858611   5.059107462   6.266856906
N       -0.044074552  -0.990510788   0.168252649
N        0.441979471   0.070268993   4.853125828
N        6.019928839   4.795195370   0.483452081
N        5.676737892   4.671710163   5.612746753
N        5.699837238  -0.562211796  -0.363476030
N        5.698798520  -0.063022966   5.249264233
H        6.654946293   6.516218617   5.900283291
H        5.832284542   6.777482963  -0.211730750
H        4.956289734   0.768589892   7.038309505
H        5.781767697   1.543110702  -0.423152000
H        0.856105553   6.207998237   4.689006127
H       -0.298225755   4.755367066   1.202495739
H       -0.092951187  -0.813739943   6.697714961
H        0.116010016   0.350392556  -1.447899172
H        6.654483466   0.771758384   0.955406644
H        6.747162874   0.559628204   6.969957465
H        5.610794067   6.556581486   1.561683843
H        5.750127116   5.893782078   7.330719746
H        1.016825381   0.824723387   0.030960097
H       -1.325173149   0.285775467   5.987959292
H       -0.092887031   6.542935385   1.243842182
H       -0.037936569   7.141650707   5.942171984
H        4.320563633   6.036444683   0.419584842
H        4.856230819   6.584369708   5.930471497
H        4.858965578   0.843572717   0.954713528
H        5.681051354  -0.867195373   7.193551109
H        1.325317612   5.482738046   0.927173749
H       -0.939011263   6.138083087   4.749982680
H       -0.781451316   0.976407741  -0.021989608
H        0.159934095   0.967091889   6.742946331
H        0.074521369  -0.690750859   4.251497124
H        0.771151503  -1.579904821  -0.090728920
H        0.920498743   5.111492748   6.848818512
H       -1.024742443   5.904566498  -0.845378480
H        5.738297768   0.830982637   4.734794298
H        6.535909372  -0.685022730  -0.963447236
H        6.490490343   4.081350219   5.870162530
H        7.047250950   4.828104779   0.582998108
H        0.073926804   4.181607731   5.723666138
H        0.165370287   4.780597490  -1.159496552
H        1.447766778  -0.125813517   4.975871142
H       -0.892552101  -1.458762736  -0.188989320
H        5.680937052   4.751305697   4.586965485
H        5.819040575   4.345852204  -0.431539765
H        4.813184166  -0.547081597   5.011366039
H        4.856174449  -0.613920231  -0.966880580
H       -0.105646440  -0.999421488   1.197229280
H        0.343692045   0.965410133   4.341047082
H        0.526594108   6.418521111  -1.121856470
H       -0.754846602   5.047780663   6.912836069
H        5.668759326  -1.322233963   0.336618858
H        6.478614733  -0.669023610   4.939282900
H        5.668323117   4.170018051   1.225164139
H        4.816758051   4.159214282   5.869775137
