CRYSTAL
PRIMVEC
11.2820 0 0
0 11.1747 0 
0 0 11.3552
PRIMCOORD
96 1
Pb       2.654744829   2.609343028   3.163558134
Pb       2.817194824   2.814432159   8.802234544
Pb       2.979733921   8.261684640   2.887627244
Pb       3.073396296   8.427695702   8.567595570
Pb       8.357330643   2.838992766   2.941282451
Pb       8.517221517   2.869806764   8.641201707
Pb       8.597703794   8.494701956   2.785730022
Pb       8.652187949   8.467732420   8.449191003
Cl       3.310686417   2.275568299   6.028111395
Cl       2.453440680   3.312667351   0.393156150
Cl       3.227985080   8.937582471   5.658767692
Cl       2.800577232   7.976260853  -0.001022827
Cl       7.808171815   2.603506214   5.782852359
Cl       8.860217027   3.312076113   0.104339314
Cl       8.331258383   9.072345265   5.620416525
Cl       8.829738318   8.218558209  -0.056372714
Cl       2.519616146  -0.192472203   2.355428830
Cl       3.017905462   0.034283258   9.433172747
Cl       3.178859413   5.360461204   3.584452818
Cl       2.862869540   5.609019060   7.971724380
Cl       8.979259385   0.109991192   2.701529578
Cl       8.869314706   0.061398946   8.814689605
Cl       8.278153677   5.671164168   2.804546107
Cl       8.817236060   5.622700699   8.090206419
Cl       5.491166983   2.249286102   2.844560070
Cl       5.676930981   3.305793360   9.075430382
Cl       5.761297218   8.928678186   2.674170991
Cl       5.876121861   8.040883381   9.044678435
Cl      -0.180000412   3.082115866   3.824712235
Cl       0.048055112   2.645550763   8.096612249
Cl       0.140861140   8.136358849   2.531639164
Cl       0.231067443   8.563312005   8.343126449
C        5.978865322   6.194154033   5.757233836
C        5.369220601   5.568595694   0.863432761
C        5.763210042  -0.119974084   6.854103846
C        6.380750748   0.110518144  -0.294644279
C       -0.001472931   6.378627113   5.303305549
C        0.112362704   5.640928741  -0.729877385
C        0.434077931  -0.250847858   5.438202071
C        0.033301292   0.538838741   0.092884961
N        0.058480502   5.404007745   0.741640384
N        0.150165527   5.266246048   6.278295573
N        0.208631127  -0.918488863  -0.167231944
N       -0.858665729   0.422152563   5.754604648
N        6.425475069   5.659003481  -0.186719624
N        5.361603228   4.844450680   5.903322014
N        5.133839379   0.031378676   0.514574260
N        5.609930605  -0.148180456   5.373306463
H        6.509246356   6.230137185   4.799002996
H        4.389114214   5.638503990   0.381129525
H        4.894373956   0.389748887   7.281155606
H        7.240761462   0.163195500   0.383631946
H        0.844833218   6.341373256   4.612055187
H        1.088477709   6.071364443  -0.973107348
H        0.515219053  -1.154144908   6.050963633
H       -0.838800824   0.888405522  -0.466735491
H        6.330185625   1.006955740  -0.922238493
H        6.688529397   0.406515268   7.102551761
H        5.511717633   6.393490807   1.568834085
H        6.678182874   6.349088114   6.584199921
H        0.940165510   1.056515805  -0.232163724
H        1.253734066   0.437095754   5.677371264
H       -0.690024010   6.331649643  -1.002519815
H       -0.013213060   7.327730428   5.850152101
H        5.467203539   4.608046459   1.380290842
H        5.178322860   6.942971150   5.781063013
H        6.447988209  -0.787650966  -0.917473682
H        5.811912185  -1.155318322   7.207496844
H       -0.024637892   4.678470197  -1.235433656
H       -0.937324141   6.233262513   4.751526298
H       -0.119604294   0.678535656   1.166533785
H        0.444537664  -0.502213387   4.371545740
H       -0.897412652   0.700032971   6.746468852
H        0.357256450  -1.118850380  -1.170623674
H        1.040181318   5.345202020   6.810916061
H        0.137424044   6.289314538   1.281790690
H        5.535586649   0.797953409   4.971265030
H        5.052887361   0.840300000   1.156810469
H        6.069947973   4.088185288   5.859868064
H        6.348543252   6.542004102  -0.728651704
H        0.141969928   4.359659511   5.783857372
H        0.836456095   4.765388753   0.994739028
H       -1.656525411  -0.212535059   5.568528062
H       -0.620913158  -1.468521264   0.116092954
H        4.656836254   4.701405173   5.155640112
H        6.319810535   4.876403990  -0.863156861
H        4.754650851  -0.689779826   5.138346531
H        5.147573647  -0.808976423   1.122565942
H        1.022101518  -1.293641563   0.343951839
H       -0.964005968   1.276286151   5.184290306
H       -0.832099512   4.946224751   0.990553048
H       -0.634026816   5.266017201   6.959801239
H        4.297372195  -0.004406915  -0.097781648
H        6.410454135  -0.632922204   4.940996345
H        7.362632661   5.603682087   0.234178311
H        4.858767411   4.764356997   6.799369538
