CRYSTAL
PRIMVEC
11.2820 0 0
0 11.1747 0 
0 0 11.3552
PRIMCOORD
96 1
Pb       2.845432665   2.836918670   3.047319975
Pb       2.854814666   2.861322617   8.770782713
Pb       2.874781584   8.441214516   3.017649586
Pb       2.788382797   8.449892193   8.747273058
Pb       8.529335485   2.792609337   2.936502532
Pb       8.528731171   2.951580677   8.552484230
Pb       8.570786215   8.386992240   2.838852167
Pb       8.444387256   8.280485108   8.517143242
Cl       2.889078025   2.874489645   5.911275694
Cl       2.508583855   2.907526815   0.204012761
Cl       2.759958232   8.504603827   5.889524953
Cl       2.929810916   8.301874090   0.191296324
Cl       8.284712505   3.417857393   5.750849427
Cl       8.666064994   2.183604450   0.033275810
Cl       8.269837296   7.957276857   5.666900417
Cl       8.558210444   9.009335073  -0.029240865
Cl       2.816811659   0.051462466   3.054970583
Cl       2.157727739   0.068026230   8.847091579
Cl       3.035145442   5.646161569   3.373943467
Cl       3.350159269   5.668372852   8.808668345
Cl       8.655101318  -0.005079143   3.647260048
Cl       8.753129393   0.022095242   8.104144754
Cl       8.325841739   5.582719181   2.212036597
Cl       8.230756988   5.613865232   9.550853152
Cl       5.699065373   2.724222775   3.283139417
Cl       5.722768741   2.391675388   8.616955877
Cl       5.733639766   8.257042649   2.793310675
Cl       5.641363761   8.745669477   8.803582720
Cl       0.014022623   3.053975695   2.969964592
Cl       0.054905981   3.507796768   8.573087712
Cl       0.059110164   8.329377258   3.212592138
Cl      -0.024269313   8.006621631   8.366581677
C        5.404976558   5.700948970   6.100929860
C        5.188425645   5.109712918   0.369801812
C        5.196605339  -0.246973379   5.903198770
C        5.163339249   0.142103951   0.512832557
C       -0.033684524   5.581881771   5.489461758
C        0.453205610   5.949596593   0.236078582
C        0.397452074   0.352584757   5.776357456
C        0.338146056  -0.111072892   0.765446112
N       -0.380332185   4.714179960   0.195805953
N        1.247257700   5.645462034   6.244193089
N       -0.373702046  -0.040985880  -0.543372566
N       -0.257157027  -0.987118574   5.839947800
N        5.738934043   6.455829097   0.046376318
N        6.070459115   5.628816700   4.769346958
N        6.136497174   0.059854166  -0.615263015
N        6.407685409   0.622120037   5.859716274
H        4.328211044   5.598184365   5.948211582
H        4.154199742   5.227445108   0.706073333
H        4.610341186  -0.079145376   4.992850464
H        4.148720760   0.178534399   0.101186317
H        0.196867822   5.599150811   4.420243500
H        1.498432774   5.663628243   0.081559420
H        1.479633400   0.207226540   5.714966100
H        0.956928433   0.785058501   0.872608889
H        5.368376152   1.048663635   1.093431333
H        4.605631367   0.019792119   6.786608875
H        5.802188804   4.667063068   1.161824919
H        5.637081051   6.668335260   6.559662694
H        0.971028631  -1.004440196   0.769658292
H        0.139710805   0.911041187   6.682475121
H        0.328846898   6.428469033   1.213666913
H       -0.647516224   6.446867788   5.763604550
H        5.223682598   4.496126050  -0.536583284
H        5.777101307   4.879024800   6.722478924
H        5.278121682  -0.744579701   1.145491996
H        5.520619271  -1.290936457   5.967449733
H        0.123015456   6.620196187  -0.565411610
H       -0.546943533   4.651823455   5.753778858
H       -0.404613904  -0.162837812   1.569587911
H        0.033419768   0.872457849   4.882946981
H        0.050424806  -1.533355235   6.662622690
H        0.312324265   0.008423184  -1.323094278
H        1.777967741   6.510588333   6.020194714
H       -0.119022941   4.068312827   0.965386909
H        6.160895338   1.616357746   5.783554693
H        6.039978249   0.874186842  -1.257487714
H        5.764883380   6.398104063   4.147159228
H        5.774689154   7.057354539   0.891281292
H        1.845965209   4.821689893   6.029338256
H       -0.252355030   4.222928072  -0.709789775
H       -0.048237641  -1.554052082   4.993113214
H       -0.998641936   0.786448995  -0.564842867
H        5.864867772   4.728144613   4.294486796
H        5.150893818   6.931776297  -0.651483524
H        7.015493187   0.393759046   5.046458276
H        5.984963813  -0.798562222  -1.183883519
H       -0.990346609  -0.863425225  -0.661454948
H       -1.279255337  -0.891029413   5.897686462
H       -1.379602243   4.937200722   0.305671270
H        1.076740518   5.639143329   7.257594901
H        7.107564798   0.040219909  -0.279321647
H        6.994572678   0.502040325   6.705238058
H        6.690857643   6.362043607  -0.351452833
H        7.090702176   5.701367225   4.870904420
