CRYSTAL
PRIMVEC
11.2820 0 0
0 11.1747 0 
0 0 11.3552
PRIMCOORD
96 1
Pb       2.999192531   2.847938116   2.914532070
Pb       2.893603682   2.693117376   8.618866151
Pb       2.830958498   8.423743321   2.959090536
Pb       2.641696256   8.258013163   8.718515435
Pb       8.670088009   2.863240806   2.975729250
Pb       8.549147973   2.771962880   8.583460660
Pb       8.535204579   8.384112615   3.033482762
Pb       8.393819283   8.321095845   8.751440495
Cl       3.368395262   2.602860546   5.790281920
Cl       2.733447568   3.400512757   0.103129041
Cl       2.398084616   8.363068138   5.796787841
Cl       3.130313868   7.733803415   0.129776197
Cl       8.060073626   2.582511405   5.782769380
Cl       8.819628153   2.536388712   0.134634306
Cl       8.460183569   8.204984703   5.897810413
Cl       7.941138970   8.730360743   0.233032049
Cl       2.857340977   0.045272655   3.218595087
Cl       2.526789383  -0.116756212   8.633320120
Cl       3.161279727   5.635001761   3.413539548
Cl       3.099568344   5.479719513   8.129107953
Cl       8.545950637   0.034624827   2.873188332
Cl       8.642404569  -0.026646717   8.822548023
Cl       9.109355695   5.635937050   2.522011525
Cl       7.919588295   5.537664446   8.774005000
Cl       5.798892356   2.518554122   2.593536677
Cl       5.729487306   2.459249760   9.126801684
Cl       5.669737858   8.716533485   3.407960781
Cl       5.512308050   8.329274967   8.633468433
Cl       0.183854785   2.769529209   3.640775557
Cl       0.117910828   2.905744979   7.891742380
Cl       0.048028776   8.573349573   2.405084417
Cl      -0.101969977   8.218799566   9.557111647
C        6.085018047   5.359093197   5.676669146
C        6.201670730   5.446678326   0.584907564
C        5.636514193  -0.409742579   6.361364289
C        4.935981570  -0.243282359   0.146502943
C       -0.333093730   5.946213532   5.920949019
C       -0.098490352   5.061364828  -0.682398873
C       -0.363365408  -0.444477066   5.770086577
C        0.410569774   0.451913257   0.335294417
N        0.356828895   5.848835144   0.499222065
N        0.923486296   5.175197965   5.710098583
N       -0.848804171  -0.327063897   0.186656803
N        0.899136407   0.344067223   5.849651845
N        5.323834461   5.478050288  -0.619506926
N        5.343994611   6.639276837   5.863061861
N        6.299400485   0.352016833   0.170335755
N        5.734042477   0.461255022   5.157004738
H        5.820605000   4.942023611   4.697944621
H        6.863496441   4.576957024   0.509497094
H        4.707133906  -0.987284252   6.301320589
H        4.845869784  -0.872978807  -0.745219484
H       -0.897003426   5.959147020   4.981310830
H        0.637377010   5.180428017  -1.483939677
H       -0.948571980  -0.083088001   4.917281707
H        0.917925003   0.118161285   1.247962390
H        4.200854264   0.569556696   0.120826206
H        5.633045176   0.226831888   7.253739702
H        5.567872184   5.370719674   1.475771601
H        5.790886402   4.662257991   6.468221077
H        0.151725787   1.513284969   0.409215654
H       -0.924937189  -0.302056896   6.700497397
H       -1.073875576   5.444894205  -0.999864519
H       -0.071433428   6.966829600   6.216920534
H        6.789900662   6.369747551   0.603137620
H        7.156679329   5.571073230   5.740938209
H        4.809376946  -0.849039682   1.049959685
H        6.499879069  -1.083437248   6.373582011
H       -0.179415692   4.010898071  -0.390787416
H       -0.917140619   5.453064832   6.706460236
H        1.039000059   0.270480642  -0.544340518
H       -0.103189184  -1.499008365   5.634631135
H        0.696649734   1.346544855   5.968357197
H       -1.467080121  -0.195297215   1.008916876
H        1.533754468   5.608844930   4.994385297
H        0.468982902   6.843288660   0.247789112
H        4.919675785   1.098898506   5.108348366
H        6.444930385   0.948006418  -0.663630690
H        4.327178991   6.491599104   5.826088366
H        4.739505998   4.630883421  -0.669822957
H        0.712640283   4.218643146   5.377720926
H        1.269837696   5.505088923   0.827041986
H        1.477183694   0.237297912   4.995418006
H       -0.653447464  -1.334347003   0.102010536
H        5.576556972   7.327782126   5.118645089
H        5.905255183   5.535133436  -1.474044347
H        5.765355331  -0.105978979   4.298660542
H        7.013122904  -0.401100616   0.189428474
H       -1.384203300  -0.050392071  -0.658416339
H        1.472224391   0.055834405   6.665056837
H       -0.339221148   5.795699734   1.271419207
H        1.484490674   5.110499078   6.578043818
H        6.420544851   0.957931011   1.000601469
H        6.580188774   1.064251974   5.203492962
H        4.683835372   6.293623150  -0.580045851
H        5.551081550   7.082561853   6.780604557
