CRYSTAL
PRIMVEC
11.2820 0 0
0 11.1747 0 
0 0 11.3552
PRIMCOORD
96 1
Pb       2.891661255   2.881824509   3.011990980
Pb       3.026476082   2.871536550   8.589383831
Pb       2.832263414   8.447084512   2.897329735
Pb       2.889010186   8.563549730   8.511098441
Pb       8.568167580   2.700734698   3.082731327
Pb       8.667262735   2.790303387   8.804831125
Pb       8.404377569   8.270416978   2.980900863
Pb       8.493146991   8.444618401   8.640220350
Cl       2.557746707   3.465698553   5.857450376
Cl       3.291397114   2.529450683   0.154523642
Cl       2.461431637   8.039093755   5.711779402
Cl       3.000097386   9.205107330  -0.020062178
Cl       8.803817765   3.353331033   6.024695367
Cl       8.221921924   2.260442518   0.305399591
Cl       8.780888012   7.813426392   5.806905109
Cl       8.147506290   8.903371398   0.076612612
Cl       2.940631485   0.054013511   3.555507314
Cl       2.187164219   0.104142295   8.206606201
Cl       2.760852605   5.652405598   2.217954276
Cl       3.481101518   5.697418250   8.909046373
Cl       8.378398546  -0.152220042   3.746092588
Cl       9.035400038   0.031009916   8.164165566
Cl       8.265189605   5.440357562   2.489528298
Cl       7.932960059   5.625128929   9.028802153
Cl       5.740789933   2.771459468   3.148585617
Cl       5.865256980   2.542988097   8.929958948
Cl       5.631158278   8.123489161   3.690823817
Cl       5.697750168   9.062331457   8.107428425
Cl       0.132370586   2.537342788   2.344852955
Cl       0.268753384   3.296548194   9.127590355
Cl       0.011200601   8.654181605   2.913400546
Cl       0.072728953   7.865726539   8.655828555
C        5.749273848   5.108073928   5.468539437
C        5.656978311   6.187028653   0.434124432
C        5.642326129   0.798002312   6.257468187
C        5.662047921  -0.102335030   1.148917925
C        0.000009405   5.504129363   4.704648984
C       -0.476425329   5.801445492   0.430561686
C        0.027782920   0.490403351   5.360802121
C       -0.379118345  -0.402806759  -0.120316258
N        0.816975755   5.770854977  -0.310904708
N       -0.032915557   5.387834091   6.189923154
N        0.772763559   0.542762150  -0.090032411
N       -0.065503403  -0.903756644   5.883981738
N        5.814558614   4.725328662   0.189538507
N        5.816301900   6.121878313   6.560595282
N        5.807202328  -0.154142484  -0.332791893
N        5.609264514  -0.304318769   5.263821479
H        6.626892046   5.227587379   4.825511885
H        6.578168132   6.685355331   0.115494117
H        5.642306636   1.750948601   5.717275146
H        4.762650361   0.467151950   1.394658231
H        0.850461638   6.127571569   4.417465260
H       -1.298839802   5.840663910  -0.293358007
H        0.054376077   0.447458286   4.268706681
H       -1.306708156   0.176454975  -0.167459798
H        6.549592649   0.383250331   1.562997499
H        6.549711939   0.694190628   6.860498763
H        5.489062749   6.344394433   1.503645607
H        4.832337302   5.276274952   4.895712762
H       -0.352842757  -1.007188127   0.792625033
H        0.945941336   0.942577390   5.750198280
H       -0.486912249   6.686225144   1.076588287
H       -0.940268088   5.951396893   4.371695666
H        4.802943040   6.544938833  -0.149990048
H        5.742642960   4.112191470   5.920920621
H        5.581768429  -1.130891177   1.518174839
H        4.758634671   0.708692511   6.898077612
H       -0.546212760   4.892111897   1.035871917
H        0.108281709   4.496114721   4.289641688
H       -0.279784858  -1.042309409  -1.003788416
H       -0.853961090   1.041018120   5.707088743
H        0.753840436  -1.478274934   5.618986819
H        0.695835617   1.190775074   0.721366971
H       -0.096906681   6.304955566   6.655480479
H        0.888635041   6.580871584  -0.946308457
H        6.466623030  -0.290841130   4.669726238
H        5.903018865   0.786799061  -0.751281272
H        5.876258508   7.070448962   6.166940394
H        6.559057974   4.333884063   0.786198063
H        0.821215245   4.899640108   6.508333182
H        0.856615811   4.921799844  -0.907242762
H       -0.907969355  -1.382429681   5.529245702
H        0.804853154   1.122416955  -0.939622925
H        6.643895791   5.971534626   7.169502631
H        6.079049258   4.539530587  -0.789389024
H        4.773655618  -0.233118066   4.647106337
H        4.989128466  -0.624146695  -0.746255217
H        1.663780094   0.023237072  -0.031680204
H       -0.126496595  -0.891828007   6.910879569
H        1.612906308   5.759217160   0.357512272
H       -0.856239911   4.810054159   6.453992554
H        6.648520225  -0.717887714  -0.558369674
H        5.579690901  -1.214538722   5.740970863
H        4.947543663   4.190207122   0.374597526
H        4.987083452   6.070866952   7.181004967
