CRYSTAL
PRIMVEC
11.2820 0 0
0 11.1747 0 
0 0 11.3552
PRIMCOORD
96 1
Pb       2.976224474   2.861932947   2.884863758
Pb       2.879950808   2.878309344   8.707267145
Pb       2.988507214   8.362456922   2.927600656
Pb       2.968005987   8.386495224   8.630236444
Pb       8.554097253   2.846429218   2.981701728
Pb       8.521579265   2.812191852   8.649709817
Pb       8.549592165   8.332892498   3.052592538
Pb       8.595745172   8.326412977   8.617924094
Cl       3.043463293   2.651510334   5.814400868
Cl       2.927767130   3.691665005   0.122860069
Cl       2.521215270   8.764102120   5.788628263
Cl       3.293015715   7.870168201   0.100309324
Cl       8.537373801   2.935933514   5.821702323
Cl       8.316851513   2.569858213   0.143180895
Cl       9.058378066   8.737941217   5.838712361
Cl       8.220794412   8.483578673   0.153088201
Cl       2.768808434   0.018368073   2.679760741
Cl       2.880926601   0.045080869   8.565816009
Cl       3.278643945   5.593567654   3.639371743
Cl       2.858438840   5.618888236   8.114200720
Cl       8.911241241  -0.001974766   2.799345215
Cl       8.871271862  -0.022512257   8.834008989
Cl       7.871220521   5.583719473   3.180292832
Cl       8.332919721   5.567707461   8.742444982
Cl       5.775537447   2.216262966   3.125019745
Cl       5.694679470   2.970203150   8.509565066
Cl       5.792203742   9.025762468   3.230619865
Cl       5.783950607   8.447168819   8.541457727
Cl       0.154124179   3.228465176   3.049928579
Cl       0.079655301   2.942015319   8.308896349
Cl       0.150741493   8.113195860   2.382597044
Cl       0.158271781   8.392844933   9.207463308
C        5.839522134   5.969254285   6.131277961
C        6.120387291   5.561823853   0.345172738
C        6.049142607  -0.010205722   6.222980082
C        5.216221402   0.098516889  -0.223804591
C       -0.247240149   6.088792499   5.800503798
C       -0.629506595   5.226595951   0.010782117
C        0.105027761   0.457607853   5.512886037
C        0.349438756   0.675126541  -0.002506977
N        0.624747505   6.026769216   0.049291208
N        0.636155307   4.890995618   5.733367444
N       -0.639902061  -0.421459732   0.190214591
N        0.152863963  -0.309751086   6.791101022
N        5.440671615   5.667660252  -0.977628195
N        5.774687841   4.623608615   5.496142623
N        6.415386328  -0.043420631   0.648635810
N        4.756121703  -0.036794334   5.483678856
H        4.924867698   6.516204741   5.879172359
H        5.848153754   6.436456552   0.944349796
H        5.835829103   0.045828650   7.295232047
H        5.546173537   0.154250278  -1.266456193
H       -0.050382337   6.721322781   4.927399436
H       -0.628722778   4.619873757  -0.900685589
H        0.975921915   0.182622020   4.906463196
H        0.998382757   0.717211431   0.878947159
H        4.687114255   1.016793171   0.057060669
H        6.616352547   0.869656224   5.896812919
H        7.200159928   5.535695356   0.177657477
H        6.721477859   6.489979416   5.741530700
H       -0.204356935   1.613082681  -0.122023675
H        0.122579706   1.524826800   5.751414070
H       -1.482275812   5.915114130   0.002840939
H       -0.023013360   6.639387921   6.721264750
H        5.786325260   4.640197317   0.833823904
H        5.925313493   5.837518146   7.212078981
H        4.568367618  -0.773308166  -0.077300909
H        6.607029629  -0.924440550   5.991157826
H       -0.656018007   4.585493158   0.897763319
H       -1.289661743   5.751303881   5.801640082
H        0.940763220   0.460646346  -0.900466698
H       -0.819557002   0.195332800   4.987870058
H        1.022671273  -0.117705831   7.324720489
H       -1.220410800  -0.259010561   1.044208680
H        1.629625679   5.156907783   5.718745451
H        0.685130205   6.657532694  -0.769286312
H        4.206312734   0.829782376   5.648439365
H        7.051914375   0.771438984   0.542197187
H        5.717489875   4.714013641   4.473621008
H        5.716738274   6.530430439  -1.480826267
H        0.451537301   4.338103817   4.868992119
H        1.460920865   5.415683937   0.071980335
H        0.123843797  -1.319305841   6.601146981
H       -0.190325149  -1.338821787   0.303164577
H        4.945811700   4.089572385   5.805705963
H        4.420456752   5.702893528  -0.849880322
H        4.156993225  -0.841272497   5.750316730
H        6.954384337  -0.906502857   0.424288896
H       -1.277352992  -0.477937565  -0.624815523
H       -0.657687797  -0.092254247   7.400725887
H        0.631022523   6.647694930   0.886554536
H        0.485499802   4.271258304   6.552224424
H        6.154155734  -0.106751114   1.642509618
H        4.918358155  -0.113890317   4.469542076
H        5.658727876   4.854845004  -1.584406226
H        6.625721764   4.064245382   5.705898390
