CRYSTAL
PRIMVEC
11.2820 0 0
0 11.1747 0 
0 0 11.3552
PRIMCOORD
96 1
Pb       2.923451200   2.743823439   2.926025760
Pb       2.960376889   2.773954328   8.500129813
Pb       2.852644893   8.340774923   2.733204359
Pb       2.778817564   8.206194250   8.438977687
Pb       8.525263991   2.894705059   3.207557010
Pb       8.431108968   2.759328533   8.910337618
Pb       8.463049039   8.593921945   2.993637168
Pb       8.477262493   8.389704744   8.745874428
Cl       3.057650305   2.062559988   5.685645141
Cl       3.130803919   2.936318910  -0.025216469
Cl       2.516358496   8.448652651   5.602811498
Cl       3.335839869   7.990287527  -0.093276407
Cl       8.517303916   3.179497918   6.141549841
Cl       8.869247275   3.138833804   0.410343047
Cl       8.832807468   8.041429875   5.929919492
Cl       8.188916500   8.359732039   0.231094970
Cl       2.600244688  -0.009614844   2.050827325
Cl       2.371248771  -0.089564495   8.668096935
Cl       2.785205024   5.556480116   3.181211490
Cl       3.783987618   5.510397960   8.158196355
Cl       8.903635242   0.165570462   2.508018008
Cl       8.999233759  -0.001565413   8.346601267
Cl       8.597832559   5.725697616   3.165166327
Cl       7.798870135   5.573597151   9.104694724
Cl       5.692165811   2.599679056   3.030070891
Cl       5.640523497   1.939010664   8.673817412
Cl       5.603906305   8.773599278   3.358097648
Cl       5.579242753   8.888206933   8.374038090
Cl       0.075893630   2.944522232   3.578078441
Cl       0.030712492   2.889195896   8.861626752
Cl      -0.009473422   8.134759195   2.640130820
Cl      -0.056120355   7.662225716   9.011919554
C        5.441610542   5.599558237   5.113385416
C        5.913692181   5.551371386   1.019808107
C        6.589019046   0.101630193   5.579496104
C        6.121786381   0.097680526   0.416287688
C        0.462547974   5.154098707   6.269671397
C        0.501495508   5.224416004   0.431971158
C        0.031153353  -0.274783962   5.226631849
C       -0.237171920  -0.521273444  -0.116965811
N       -0.780764294   5.966988721   0.291940352
N        0.144709702   6.095166854   5.159149855
N        0.113536900   0.900040071   0.176654183
N        0.092593738   0.751508185   6.306081205
N        5.217827785   5.421106457  -0.289988422
N        6.508142964   5.733052747   6.146039896
N        4.863938301  -0.156595396  -0.344045589
N        5.203654831  -0.381278839   5.840049245
H        5.918377648   5.549827617   4.129871952
H        5.164542312   5.512148646   1.818435058
H        7.281803481  -0.729270547   5.759120987
H        6.119246694  -0.525432623   1.316649929
H        1.418669813   4.668955538   6.041265103
H        1.325565813   5.946569933   0.423077021
H        0.967000346  -0.239507792   4.658918872
H        0.420196470  -0.881070847  -0.914645074
H        6.150949185   1.155980815   0.695327705
H        6.807797919   0.926521022   6.264040291
H        6.447932922   6.506472103   1.031433180
H        4.777889212   6.467200930   5.177939061
H       -1.282434081  -0.563025390  -0.434006511
H       -0.810422143  -0.039724017   4.566367232
H        0.592119100   4.526292514  -0.406607674
H       -0.340011993   4.412795906   6.335256898
H        6.622556125   4.724825930   1.123330011
H        4.879180559   4.681577220   5.312265399
H        6.974498500  -0.165808074  -0.217635199
H        6.647255975   0.436821528   4.538341977
H        0.487050413   4.680945035   1.383332689
H        0.525225471   5.724288466   7.203066602
H       -0.099493791  -1.103749728   0.799385548
H       -0.097061798  -1.259697695   5.686926092
H        0.165437206   1.691628192   5.893951439
H        0.129837774   1.483667868  -0.682534416
H        0.066227383   5.590547492   4.266221067
H       -0.779121345   6.511569825  -0.590743001
H        5.154104825  -0.832128588   6.774456364
H        4.037076064   0.047436406   0.245930133
H        7.120061288   6.554438143   5.979574942
H        4.572726377   6.222468576  -0.430592921
H        0.887533969   6.808151766   5.058891314
H       -0.894196275   6.634864442   1.071769846
H        0.911978220   0.599108683   6.920449814
H        1.043911411   0.934228888   0.628514018
H        7.133658632   4.901666456   6.159726843
H        4.645574063   4.556957291  -0.327669781
H        4.957061816  -1.099004397   5.135574814
H        4.793584648  -1.138326182  -0.646727059
H       -0.576183219   1.311294985   0.823180411
H       -0.747263965   0.702711920   6.916643105
H       -1.578848296   5.309515955   0.294733694
H       -0.748248472   6.595956703   5.323766942
H        4.838715272   0.440799147  -1.190335189
H        4.513407348   0.393876826   5.796302192
H        5.903771363   5.418236855  -1.067919932
H        6.092395852   5.822779348   7.084462926
