CRYSTAL
PRIMVEC
11.2820 0 0
0 11.1747 0 
0 0 11.3552
PRIMCOORD
96 1
Pb       3.012879337   2.621541880   3.095866277
Pb       2.993121687   2.783647598   8.776019291
Pb       2.774809978   8.316764106   3.046951767
Pb       2.631998023   8.410226367   8.659923738
Pb       8.640998538   2.764752748   2.981682828
Pb       8.583317404   2.908000414   8.601514093
Pb       8.505517269   8.345524027   2.853412130
Pb       8.406396017   8.461532822   8.526604774
Cl       2.844201509   2.802633900   5.946839988
Cl       3.067524895   2.183596819   0.247637535
Cl       3.336548184   7.991260131   5.861272771
Cl       2.595887659   8.203387490   0.160445580
Cl       8.893270711   2.608758817   5.806873223
Cl       8.669714764   2.757206604   0.093963725
Cl       7.951692799   8.215090078   5.678232072
Cl       8.446601300   8.473437871  -0.007561569
Cl       3.455197265  -0.140858955   3.432587939
Cl       2.266859616   0.036902445   8.667505629
Cl       2.876235984   5.482521623   3.022969559
Cl       3.244700792   5.625639236   9.030806329
Cl       8.606935365  -0.045116553   3.127075835
Cl       9.261418236   0.116083199   8.668347986
Cl       8.457618537   5.552210643   2.999139580
Cl       7.967975780   5.720132320   8.913876964
Cl       5.786161811   2.967019089   3.172390224
Cl       5.757907823   2.251010817   8.470808882
Cl       5.625780362   8.211795109   2.405278001
Cl       5.477737032   9.017616941   8.886808632
Cl       0.198322706   2.924031366   2.494292462
Cl       0.170517560   3.547060893   8.877430245
Cl       0.014091451   8.475171780   3.456375484
Cl      -0.111710985   7.958372667   7.971081148
C        5.767902351   5.132832961   6.040671258
C        5.662100346   4.994909211   0.362258474
C        6.223742649   0.114816222   5.600080835
C        6.233473013   0.373452107   0.373073291
C       -0.115759363   5.481470891   5.351457217
C       -0.387741035   6.160113651   0.237170092
C        0.356600557   0.273763420   5.455473802
C       -0.025263305  -0.253075418   0.567001920
N        0.765663960   5.210266465   0.206074423
N        1.117521346   5.510747638   6.193931748
N        0.055691071   0.983497857  -0.259876179
N       -0.880288607  -0.502210907   5.750313971
N        5.702037637   6.339120108  -0.278622081
N        5.729856006   5.878391521   4.750471730
N        5.032199382  -0.509450892   0.276807634
N        4.965622133  -0.078208670   6.378029663
H        5.727176412   4.061066731   5.823608137
H        5.614206851   4.233157967  -0.424388787
H        7.050566795   0.239559228   6.307822324
H        6.220113856   1.066867395  -0.473718760
H        0.185241094   5.430336447   4.300547662
H       -0.346420354   6.787461943  -0.659712888
H        1.055465109   0.154305121   6.290421444
H        0.853740245  -0.874791265   0.359728363
H        7.128558477  -0.257025193   0.339094675
H        6.115939883   1.013845050   4.984333380
H        4.780680357   4.939329162   1.009875792
H        4.908165771   5.438401383   6.648153528
H       -0.941013108  -0.793420229   0.300282900
H        0.078510455   1.327639535   5.348223865
H       -0.306002195   6.779246271   1.137539905
H       -0.690267917   6.393784743   5.541848097
H        6.572096444   4.864964625   0.957063377
H        6.698480739   5.390190046   6.557390656
H        6.183626993   0.925309041   1.317998806
H        6.385300108  -0.763403590   4.970184009
H       -1.314982925   5.576869357   0.250387119
H       -0.698849385   4.594792542   5.624370809
H       -0.056181426   0.038510710   1.622195820
H        0.794493560  -0.108191248   4.527324902
H       -1.299640086  -0.200414998   6.654998236
H        0.047718010   0.754236152  -1.263006732
H        1.713942560   6.331524484   5.984283756
H        1.656068290   5.725859020   0.224078758
H        4.824280068   0.733418120   7.002328582
H        5.046777625  -1.039172460  -0.617948061
H        4.871225213   5.673924172   4.210039930
H        4.861684405   6.481692068  -0.861347026
H        1.689919601   4.654034198   6.049378661
H        0.721018996   4.646260626  -0.668634201
H       -0.684381941  -1.509562274   5.811058368
H        0.929073189   1.500010683  -0.052965618
H        6.547695744   5.639527650   4.154746477
H        6.528854121   6.402997606  -0.902923493
H        5.021703685  -0.914722843   6.985709280
H        4.172748667   0.060062919   0.316395702
H       -0.757480995   1.610079734  -0.077735576
H       -1.577857353  -0.363463965   4.990814093
H        0.728334655   4.555920042   1.013377820
H        0.870384296   5.551824023   7.191753280
H        5.022421151  -1.198913488   1.049023867
H        4.166014894  -0.171693777   5.732773983
H        5.751525521   7.083358058   0.440270974
H        5.767717519   6.891655712   4.918934415
