CRYSTAL
PRIMVEC
11.2820 0 0
0 11.1747 0 
0 0 11.3552
PRIMCOORD
96 1
Pb       2.869865836   2.745250912   2.936884327
Pb       3.105746641   2.898915716   8.586598737
Pb       2.746003110   8.305584009   2.844897939
Pb       2.975052759   8.550668125   8.553863394
Pb       8.403625598   2.648385262   3.143261859
Pb       8.771346415   2.817783518   8.795398377
Pb       8.384689235   8.249859056   2.876126723
Pb       8.622612000   8.484794289   8.589056769
Cl       3.328355894   3.093085150   5.730515188
Cl       2.617319233   3.194322347   0.085529788
Cl       3.595322395   8.393322759   5.715237627
Cl       2.287887553   8.289809988   0.055478900
Cl       8.746852845   3.187299588   5.963353538
Cl       8.638536238   2.234289545   0.324171491
Cl       8.081281117   8.112056617   5.716702857
Cl       8.849552910   8.908015438   0.077611211
Cl       2.229502387  -0.048511096   2.779715405
Cl       2.518992324   0.165255129   8.126195348
Cl       3.472005565   5.548983151   2.776259072
Cl       3.129730055   5.733409335   8.702713986
Cl       8.802890928  -0.161104375   3.436603049
Cl       9.018011278   0.060553375   8.034737939
Cl       7.529174488   5.406032602   2.876761992
Cl       8.737783641   5.638462800   9.084608777
Cl       5.654546447   1.904566281   2.813124777
Cl       5.942088129   2.622444929   9.237763821
Cl       5.572185038   8.966866600   2.513124786
Cl       5.809474036   8.924305588   9.013906898
Cl       0.014744288   2.892762405   3.233884172
Cl       0.295777202   3.209304676   8.408902670
Cl      -0.110096344   7.769249947   3.297061054
Cl       0.153013989   7.963101035   8.269447916
C        6.066882181   5.332892820   6.685610395
C        5.776604046   6.163208872  -0.111866571
C        5.900925714   0.485324130   6.352482897
C        4.628022001   0.100839533  -0.122626208
C        0.870126380   5.562540630   5.681014800
C       -0.463569962   5.473985933   0.532352449
C        0.341588008  -0.598252591   5.657936547
C        0.353239505   0.234706202  -0.510155511
N        0.513508133   5.649175161  -0.578558565
N       -0.564201458   5.868000618   5.947796566
N       -0.310380166   0.039328107   0.810601563
N        0.056165665   0.851806250   5.862570527
N        5.588310514   4.750205443   0.332091273
N        5.352782778   5.642445902   5.413185561
N        6.081176017  -0.148861961   0.090003513
N        5.937593193  -0.548755780   5.278521092
H        5.415975022   5.608091269   7.521318066
H        6.839692591   6.321159015  -0.322745624
H        4.990569341   1.080855685   6.227885145
H        4.462028076   0.303089720  -1.184924044
H        1.433365234   6.501031715   5.726885746
H       -1.167331688   6.313304680   0.505215967
H        1.403134674  -0.714547156   5.422500024
H        0.855233027   1.207863364  -0.511624694
H        4.324392097   0.954914069   0.487993420
H        6.790439610   1.118036366   6.257602981
H        5.439401143   6.824661345   0.693867861
H        6.999042166   5.901844856   6.716167932
H       -0.408983574   0.195611184  -1.296936018
H       -0.279648158  -0.962342572   4.834555493
H        0.082730872   5.464266986   1.481425231
H        0.951544424   5.112650687   4.687090589
H        5.182337632   6.324628637  -1.016213880
H        6.278658080   4.259993122   6.710695893
H        4.081532498  -0.797759614   0.184143000
H        5.903717711  -0.022714762   7.322499982
H       -0.996153476   4.527045948   0.388104284
H        1.223373583   4.871051478   6.449663163
H        1.080725849  -0.570062093  -0.651522940
H        0.099181799  -1.123277949   6.587063561
H        0.150827910   1.407822437   4.991279867
H       -0.982414028   0.804642905   0.986876419
H       -0.918548995   6.517862538   5.228279167
H        1.054148764   6.530556812  -0.467769729
H        5.927707969  -0.117822981   4.341603289
H        6.647821412   0.705027052  -0.026195850
H        4.932326134   6.590458212   5.434141324
H        6.123123132   4.592587805   1.203150880
H       -0.647035640   6.345814534   6.862798683
H        0.036095784   5.680961214  -1.489910685
H        0.682888079   1.244713029   6.580681075
H        0.390858637   0.009626644   1.577222770
H        4.578366781   4.969088722   5.271501010
H        5.891368944   4.074584362  -0.396759329
H        5.127228051  -1.195762590   5.346622273
H        6.402049413  -0.865311822  -0.586054418
H       -0.863281106  -0.837077724   0.802792386
H       -0.906284189   0.976707510   6.213654347
H        1.195070315   4.870002215  -0.593363895
H       -1.151283956   5.012594831   5.956463986
H        6.229676852  -0.528953265   1.040322949
H        6.785782701  -1.138356205   5.348254011
H        4.593268851   4.553684563   0.526508451
H        5.982818863   5.581096618   4.592345220
