CRYSTAL
PRIMVEC
11.2820 0 0
0 11.1747 0 
0 0 11.3552
PRIMCOORD
96 1
Pb       2.964956266   2.937742084   2.915905841
Pb       2.882685752   2.723386183   8.547505334
Pb       2.973457205   8.442323441   3.003670739
Pb       2.875279855   8.309637483   8.664689419
Pb       8.416813137   2.837336720   2.904688077
Pb       8.502345398   2.700041624   8.563591101
Pb       8.566283544   8.433572997   3.063430118
Pb       8.591266458   8.208461297   8.737210240
Cl       2.282730237   2.581180946   5.710166957
Cl       3.295252967   3.188211432   0.011627741
Cl       2.895765852   8.819084199   5.847469995
Cl       3.100788011   8.345680172   0.150261778
Cl       9.007019147   2.426797414   5.705596372
Cl       8.372203757   3.495006773   0.038343800
Cl       8.219077855   8.609259491   5.941185857
Cl       8.458053999   7.871577624   0.261310128
Cl       2.879288269   0.081429844   2.991503612
Cl       3.696872755  -0.104038795   8.935666606
Cl       2.361423173   5.657288650   3.177247445
Cl       2.433757023   5.491046216   8.256020129
Cl       8.872470257   0.021892474   2.314886058
Cl       7.915749930  -0.185839269   9.030198102
Cl       8.704984854   5.591859363   3.556561904
Cl       9.003492693   5.425250196   8.069400425
Cl       5.686519146   3.177810567   3.612640617
Cl       5.702611113   3.285292743   8.142317707
Cl       5.815461318   8.852786894   3.005120033
Cl       5.742829903   7.679837323   8.712152044
Cl      -0.001007157   2.988790010   2.653880756
Cl       0.023440118   2.351146846   8.920165601
Cl       0.139217131   8.541692184   2.817517909
Cl       0.068462481   8.897338271   8.847915417
C        5.147047266   6.141264835   5.549933383
C        5.510526777   5.793455042   0.930941781
C        5.665208287   0.473918859   5.548752351
C        5.663951423   0.362876110   0.568408175
C        0.103359929   6.428630430   5.876762226
C        0.445339356   5.679250800  -0.271985817
C       -0.089565693  -0.451988250   5.882024140
C        0.826507032   0.104467038   0.300303836
N       -0.320521201   5.756282365   1.007991291
N        0.057289425   4.959007655   5.639360950
N       -0.503502523   0.032350098  -0.368687384
N        0.083667693   0.313499377   4.614381271
N        5.704650390   5.228876241  -0.434126149
N        6.432357959   5.527626042   5.983159092
N        5.802858542  -0.996187570  -0.028737308
N        5.595105118  -0.743959262   6.404962651
H        5.358163677   7.133135696   5.136349764
H        4.475684071   6.138628352   1.018892185
H        5.745517045   0.152829826   4.504704285
H        4.886883480   0.902690665   0.016676530
H       -0.827040024   6.864863230   5.499217835
H        0.060470249   4.838206911  -0.860524844
H        0.677077025  -0.121256109   6.590025990
H        0.929245942  -0.755622156   0.967849877
H        6.627103510   0.878296531   0.476794585
H        6.538898843   1.067466721   5.839269439
H        6.205650047   6.626345642   1.072235666
H        4.488517153   6.218196745   6.421063017
H        0.875864659   1.038008305   0.869683477
H        0.034227072  -1.516915974   5.665426045
H        1.502167171   5.519558567  -0.035234177
H        0.968957855   6.835550286   5.346916092
H        5.707935105   5.002487270   1.663573316
H        4.692940015   5.498472313   4.789230831
H        5.380307361   0.250354129   1.620177951
H        4.747767033   1.056545641   5.688375775
H        0.311661762   6.620023703  -0.818070377
H        0.196193362   6.598019309   6.953059686
H        1.606864298   0.082107009  -0.469538471
H       -1.089997797  -0.247566039   6.277275663
H        1.020760661   0.156611725   4.187798709
H       -1.266295113   0.021049615   0.329873136
H       -0.020843461   4.739102449   4.635876827
H       -0.203107669   4.885253501   1.564042292
H        6.452830126  -1.321642055   6.313564071
H        6.160907873  -0.918236176  -0.995323561
H        6.934760318   6.143301838   6.636077900
H        5.658643874   5.960084748  -1.168298746
H       -0.756013442   4.534246383   6.110457219
H       -1.325045789   5.888166228   0.826598043
H       -0.004024647   1.323267829   4.789618621
H       -0.554189223  -0.815186941  -0.963541874
H        7.063680602   5.351976179   5.182521087
H        4.969697195   4.517681337  -0.613156098
H        4.773339657  -1.325625813   6.138638559
H        4.894446343  -1.502565907  -0.043157132
H       -0.604792302   0.847340685  -1.005801303
H       -0.627837631   0.063827033   3.907219376
H       -0.006985677   6.551850404   1.593052110
H        0.911484253   4.480367574   5.977852986
H        6.465969177  -1.573927260   0.505673998
H        5.457591503  -0.492183515   7.396654583
H        6.623332647   4.747507398  -0.490933337
H        6.257420659   4.638495693   6.492796090
