CRYSTAL
PRIMVEC
11.2820 0 0
0 11.1747 0 
0 0 11.3552
PRIMCOORD
96 1
Pb       3.083894307   2.947298517   2.935033691
Pb       2.838845722   2.841405871   8.603571479
Pb       3.132063438   8.425999600   2.857164584
Pb       2.867573882   8.425827542   8.629140093
Pb       8.643753308   2.820913197   2.943862947
Pb       8.350653252   2.750499780   8.564673585
Pb       8.717297802   8.406601940   2.949964847
Pb       8.427206873   8.345863492   8.644621429
Cl       2.927819445   2.788110858   5.739937195
Cl       2.643243395   2.458010639   0.078847760
Cl       3.051815911   8.268868521   5.727852706
Cl       3.122927289   9.136126352   0.051507755
Cl       9.023286902   2.879429000   5.748056316
Cl       8.520473816   2.958377627   0.044345438
Cl       8.681755360   8.001943414   5.832150307
Cl       8.317685359   8.121080709   0.164063926
Cl       2.771563639   0.097598119   3.023587436
Cl       2.683353221   0.045803003   8.136282388
Cl       4.053799054   5.662769493   2.656876992
Cl       2.446022804   5.626540459   8.961462201
Cl       9.160238184   0.039893186   2.568372333
Cl       8.694519778  -0.033379309   8.434655290
Cl       8.026392120   5.609939183   3.081346077
Cl       8.277452457   5.540074717   8.704774072
Cl       5.823534964   2.119031666   3.039515774
Cl       5.569582330   2.513509882   9.089457861
Cl       5.918720713   9.060420490   3.254385598
Cl       5.660116945   8.411778867   8.230594876
Cl       0.208369020   3.195690111   2.720028860
Cl      -0.059551469   2.896630369   8.613506929
Cl       0.303285621   8.234285530   2.709679062
Cl       0.024291222   8.354843258   8.449808992
C        5.769468707   5.246521602   6.107706972
C        5.255495302   5.693139792  -0.594801135
C        6.116889884   0.137310472   6.223850828
C        6.384879985  -0.357343217  -0.017079643
C        0.474752037   5.619572369   5.540140275
C       -0.565386556   5.890655795   0.015929926
C        0.012787744  -0.628185916   5.426088944
C       -0.284000735  -0.114904484  -0.466901324
N        0.306789655   4.689487588  -0.083526173
N       -0.383677819   5.632530116   6.757531882
N        0.522686059  -0.016646982   0.779972778
N       -0.070009481   0.385004143   6.515949944
N        6.427880914   5.524545098   0.305940361
N        5.823836251   6.544612584   5.382929434
N        5.218052807   0.512757388   0.294196381
N        4.816069864   0.020408712   5.507457072
H        6.626911725   4.639147640   5.791611471
H        5.615508482   5.777321180  -1.624541682
H        5.921326178   0.224876947   7.296480665
H        7.284969291   0.265545285  -0.062986731
H        1.522593428   5.588886275   5.857964947
H       -0.562496156   6.409641766  -0.948209907
H        0.828130063  -0.354519081   4.747943985
H        0.394881848  -0.160303067  -1.325620531
H        6.204036180  -0.852018985  -0.978493334
H        6.639620821   1.025597441   5.848458042
H        4.721273985   6.603986674  -0.301088726
H        4.831364965   4.738716847   5.855353391
H       -0.931665155   0.765631678  -0.531742661
H       -0.937611988  -0.632319495   4.884719327
H       -0.177431093   6.548081420   0.801898853
H        0.281161210   6.532253715   4.963942361
H        4.599472198   4.824137931  -0.485358500
H        5.828544082   5.447896586   7.182755609
H        6.477746289  -1.100179941   0.779070774
H        6.706944116  -0.762798978   6.019374764
H       -1.576450182   5.557597476   0.263618112
H        0.225719555   4.734202178   4.944835537
H       -0.894385631  -1.023099394  -0.413941779
H        0.202585331  -1.605611503   5.880623385
H       -0.291289382   1.323237410   6.155053443
H        1.121859293   0.826006290   0.774011372
H       -0.179425953   6.463921117   7.351490732
H        1.256911033   4.943691800  -0.388938399
H        4.206426647   0.841638962   5.672539846
H        5.102631177   1.240289897  -0.432523780
H        5.764475708   6.393209728   4.365476693
H        7.072214293   6.341821928   0.244725861
H       -0.247040400   4.780324083   7.330946434
H       -0.043166577   4.028090964  -0.799740956
H        0.821714245   0.422365408   7.047097889
H        1.150748823  -0.826987510   0.883776910
H        6.714577705   7.047875982   5.571805392
H        6.985540132   4.678989947   0.081873013
H        4.293949597  -0.823955258   5.796755499
H        5.348672938   0.988044425   1.209754476
H       -0.111403621   0.019919618   1.602033218
H       -0.830857009   0.151845356   7.187896688
H        0.355320274   4.179337951   0.824240833
H       -1.380017703   5.682463275   6.510879885
H        4.353153471  -0.051663084   0.336168247
H        4.966643838  -0.053247550   4.490893250
H        6.122862646   5.455086251   1.289428985
H        5.036421311   7.164039924   5.650523985
