CRYSTAL
PRIMVEC
11.2820 0 0
0 11.1747 0 
0 0 11.3552
PRIMCOORD
96 1
Pb       2.722115511   2.741942571   2.847171365
Pb       3.001616654   2.740639155   8.568734830
Pb       2.799744741   8.439270259   3.035632771
Pb       3.028447745   8.358238502   8.682252971
Pb       8.361351560   2.780390379   2.955750584
Pb       8.633117506   2.834473005   8.642950185
Pb       8.417900654   8.339410927   2.957802634
Pb       8.742538747   8.369041761   8.695545488
Cl       3.025744400   3.161742324   5.698939927
Cl       2.355363068   2.487156702  -0.016061695
Cl       3.229941198   7.890739016   5.857610415
Cl       2.172246217   8.569624564   0.145198125
Cl       7.865785455   2.958467623   5.846644812
Cl       8.571045495   2.404984263   0.120488385
Cl       7.920503699   8.207167049   5.861983733
Cl       9.047712280   8.752752250   0.150422717
Cl       2.625224999   0.007582367   3.590004268
Cl       2.417240344  -0.060315414   8.282560113
Cl       2.589514412   5.571377102   2.594080614
Cl       3.729311386   5.509248362   8.740672228
Cl       8.295489508  -0.014050486   3.323728409
Cl       9.268356390   0.045815505   8.476240323
Cl       8.385446100   5.556973908   2.144491970
Cl       7.970727746   5.618606918   8.895498041
Cl       5.544525118   2.743420961   2.385004612
Cl       5.848008244   2.187029089   8.907700316
Cl       5.617563683   8.723727625   2.566193825
Cl       6.012314214   9.093527818   9.019151507
Cl      -0.104946750   2.982565825   3.464122824
Cl       0.188936604   3.189273448   8.156950756
Cl      -0.037111657   7.999702154   3.358302434
Cl       0.328738765   7.775187633   8.292475502
C        5.664897851   5.586856178   4.771384146
C        5.419312652   6.098843938   0.242460648
C        5.294333106  -0.000844125   5.592021977
C        4.900068045  -0.026436060   0.139682385
C       -0.719218917   5.602856966   5.875519402
C        0.023058503   5.255562092  -0.478748736
C       -0.157435602  -0.498795266   5.680323692
C       -0.038362433   0.244601555   0.995786915
N       -0.032553793   6.112451657   0.738577861
N        0.749577271   5.628300696   5.623602255
N        0.298480719  -0.055013241  -0.425039441
N        0.412662535   0.863611273   5.868543809
N        5.918921300   4.736512694  -0.098525537
N        5.922484932   5.646683756   6.237871827
N        6.381571068  -0.142429981   0.268718608
N        6.559046302  -0.039133527   6.384691024
H        6.624507777   5.452710772   4.259903086
H        5.743555049   6.793422781  -0.541301208
H        5.555897129  -0.044161209   4.529554848
H        4.665712843   0.235327413  -0.895961725
H       -1.144095397   4.740071559   5.353187349
H        0.940343595   5.484012424  -1.031980628
H        0.211319870  -0.894652383   4.730411114
H       -0.874024028  -0.391103042   1.301505610
H        4.552993646   0.755234904   0.819968533
H        4.763699310   0.930656253   5.818322917
H        5.844230183   6.387882385   1.207160478
H        5.201404769   6.528254358   4.462904459
H       -0.312333326   1.299993057   1.075079729
H       -1.248625748  -0.424463826   5.659676765
H       -0.851153668   5.473795185  -1.102205685
H       -1.143932429   6.538379168   5.499021356
H        4.326675919   6.067569286   0.300027303
H        5.002440904   4.741297247   4.565574651
H        4.459061295  -0.993375340   0.400722285
H        4.681451259  -0.867713720   5.862894002
H        0.024279437   4.205449586  -0.168992235
H       -0.881360047   5.516787263   6.953419996
H        0.846080989   0.035723686   1.607350378
H        0.168907241  -1.131871615   6.513221705
H        0.142313631   1.507123994   5.097848656
H       -0.524855317  -0.017983991  -1.051300942
H        0.955398941   5.750524171   4.620147535
H        0.005793579   7.112289578   0.499643899
H        7.133351595   0.798441823   6.183362920
H        6.867275157   0.749281539   0.066542874
H        6.508714387   6.472591632   6.454469278
H        6.944735200   4.736352181  -0.172030606
H        1.214184749   4.754181189   5.924169026
H        0.771897283   5.927180375   1.370597577
H        1.440446818   0.823904224   5.869234265
H        0.732822315  -0.995547778  -0.488953960
H        6.444240179   4.808702659   6.538551708
H        5.547056506   4.420175647  -1.005743170
H        7.102751822  -0.893250923   6.156639607
H        6.726410830  -0.856788935  -0.394778869
H        0.999417216   0.623041157  -0.765370755
H        0.128901859   1.298713517   6.763006278
H       -0.910825122   5.950142409   1.269652507
H        1.198966586   6.416285396   6.118649715
H        6.643258843  -0.436231412   1.221606517
H        6.367777209  -0.059010573   7.396476132
H        5.669163610   4.043628032   0.637711258
H        5.052564728   5.705097512   6.798055563
