CRYSTAL
PRIMVEC
11.2820 0 0
0 11.1747 0 
0 0 11.3552
PRIMCOORD
96 1
Pb       2.982876265   2.744053522   2.761368662
Pb       2.985461493   2.774319891   8.386662258
Pb       2.754810750   8.300799775   2.988756931
Pb       2.871842337   8.333399275   8.734908504
Pb       8.631687815   2.901523653   2.918201473
Pb       8.758909020   2.891770373   8.493351442
Pb       8.434388120   8.495924200   3.068398843
Pb       8.620566413   8.516089713   8.891384056
Cl       3.172344112   2.837152495   5.561601125
Cl       2.550650231   2.582646376  -0.140852513
Cl       2.524639110   8.136715423   5.881115123
Cl       3.052795881   8.559467343   0.181549724
Cl       8.191398712   2.420512151   5.736555632
Cl       9.071578334   3.319704018   0.012638534
Cl       8.650926760   9.014514919   6.005268693
Cl       7.906073914   7.976972833   0.289221980
Cl       3.124227219  -0.071624817   2.923626187
Cl       3.311542473  -0.057192199   8.112304760
Cl       2.446222128   5.527299191   2.695728928
Cl       2.062632759   5.542555286   8.717562872
Cl       8.303119103   0.115616228   2.426423569
Cl       8.395582923   0.142650719   9.150267620
Cl       8.725697076   5.716157505   3.601055868
Cl       8.958862376   5.765037952   8.049933969
Cl       5.843341179   3.079889432   2.342363020
Cl       5.914493974   3.117532302   8.813846162
Cl       5.602553630   8.055442206   3.240305502
Cl       5.803187306   8.215803155   8.387192182
Cl       0.154964847   2.615441598   2.644930755
Cl       0.234054749   2.056288199   8.171364494
Cl      -0.059220212   8.486076808   3.210686830
Cl       0.154238275   9.087287149   9.006441728
C        5.410025352   5.226214110   5.708848850
C        5.005432392   5.817495704  -0.024851757
C        5.534993198  -0.110754109   5.308561524
C        5.299179705   0.267748930  -0.220131657
C        0.145789706   4.755810956   5.642253628
C       -0.354201873   6.320107450   0.187821613
C        0.222362390   0.449148773   5.090171458
C        0.000837207  -0.454625800   0.711049281
N        0.534224868   5.127656616   0.172678933
N       -0.094560328   6.220324171   5.778768114
N       -0.080241018   0.683909580  -0.245709620
N        0.271629213  -0.563971772   6.182929359
N        6.306025648   5.094062622  -0.044880789
N        6.362885206   6.365886235   5.841251733
N        5.581932347  -0.612168299   0.948291953
N        6.173966588   0.053350576   6.644298974
H        5.600844464   4.717122998   4.757012591
H        5.004912737   6.549100911  -0.839112069
H        6.312837786  -0.034399680   4.539476329
H        6.111856546   0.164449138  -0.946494781
H        0.766151769   4.581300404   4.758215280
H       -1.060371588   6.231244474  -0.644837354
H        1.137997747   1.047698141   5.129908326
H       -0.917474191  -1.044487778   0.627037719
H        5.244429153   1.301592767   0.137030484
H        4.789684016   0.681543670   5.185570769
H        4.903251686   6.328184262   0.937985384
H        4.389641089   5.625590755   5.723034106
H        0.096945169  -0.045636938   1.720426636
H       -0.652255012   1.087031518   5.257795514
H        0.260726570   7.220476451   0.073716595
H       -0.825121846   4.259852054   5.532240141
H        4.197715609   5.087837246  -0.156817666
H        5.564693760   4.534632978   6.543645300
H        4.342392915  -0.030950200  -0.658773147
H        5.048979366  -1.090907150   5.269999238
H       -0.894686246   6.342123571   1.140262162
H        0.652361305   4.404996796   6.545638983
H        0.873265420  -1.063481922   0.452548240
H        0.142018430  -0.074673034   4.133492151
H        0.380563193  -0.093289088   7.095502123
H       -0.874191698   1.310919768  -0.032850481
H       -0.542964212   6.594397943   4.929039706
H        1.082451629   5.090090493  -0.710133073
H        6.681121486   0.953288366   6.682934835
H        6.474987805  -0.342606838   1.411584895
H        6.230187904   7.013011193   5.039121620
H        7.087277893   5.764505340   0.030484477
H        0.788934883   6.746723363   5.924836085
H       -0.029397261   4.266989858   0.255706166
H        1.058593448  -1.226772685   6.067323465
H       -0.199314075   0.349703485  -1.212312830
H        7.338961999   6.045368259   5.832257880
H        6.396458749   4.532734966  -0.914168194
H        6.866494779  -0.690708362   6.813879045
H        5.651255139  -1.599436896   0.675344961
H        0.781692602   1.268269959  -0.213309888
H       -0.604272547  -1.117806169   6.209176532
H        1.200210636   5.155999848   0.971906067
H       -0.734069541   6.382834223   6.578228001
H        4.814822504  -0.529368529   1.647380894
H        5.446727037   0.019137312   7.383295704
H        6.347111470   4.424305885   0.752313757
H        6.204461735   6.905017440   6.718048240
