CRYSTAL
PRIMVEC
11.2820 0 0
0 11.1747 0 
0 0 11.3552
PRIMCOORD
96 1
Pb       2.749320165   2.791450214   2.799122545
Pb       2.732034997   2.721314547   8.505355764
Pb       3.035232397   8.454304003   2.950029856
Pb       2.889591899   8.300974628   8.644685034
Pb       8.445120451   2.964113628   2.973074090
Pb       8.403529752   2.764469950   8.594677916
Pb       8.657343223   8.456632939   3.075657734
Pb       8.584649642   8.307870912   8.741561156
Cl       3.103781698   2.351788930   5.634905335
Cl       2.560477441   3.450892943  -0.047737913
Cl       2.894638433   8.252389394   5.796240813
Cl       2.993515434   8.207773034   0.113728270
Cl       7.956794185   2.521541156   5.783198871
Cl       8.339034596   2.955443487   0.086857817
Cl       8.725247881   8.557512959   5.916877515
Cl       8.868824675   8.360166028   0.209035736
Cl       2.889246217   0.031550781   2.136575502
Cl       2.310382082  -0.066136511   9.020860001
Cl       2.773432163   5.636894808   2.962693688
Cl       3.462063063   5.507762528   8.235094929
Cl       8.651048794   0.117281253   3.184316474
Cl       9.218809215  -0.060923643   8.797770024
Cl       8.315050456   5.711055019   3.343054744
Cl       7.626931529   5.535153824   8.553348335
Cl       5.571857837   2.836786833   2.624435525
Cl       5.544773506   2.222455682   8.984890997
Cl       5.833094811   8.697525715   3.364518250
Cl       5.731546431   8.752661272   8.815485814
Cl      -0.027772260   2.940296291   3.642489422
Cl      -0.068996404   3.189131452   7.955987030
Cl       0.222796423   8.412209451   2.761280525
Cl       0.128652211   7.646483511   8.939831434
C        5.545583125   5.340220754   5.325176048
C        5.884892687   5.906586794   0.567357098
C        5.660275217  -0.350896092   6.201078384
C        6.372719899  -0.143071114   0.442985471
C       -0.101249322   6.051902168   5.760413054
C       -0.516498454   5.113045313   0.433659439
C        0.449509561  -0.346822728   5.639823622
C       -0.137451515   0.571502325   0.467577064
N        0.550236581   6.150097370   0.398953365
N        1.179894961   5.287678066   5.744349562
N        0.181785491  -0.800170594  -0.023056972
N       -0.767393548   0.486596306   5.852190075
N        5.613804407   4.715363223  -0.286720309
N        5.820394495   6.612731145   6.054771452
N        5.090373912  -0.168932466  -0.316018727
N        5.671801384   0.458127866   4.949800241
H        5.329902594   5.574336072   4.279011638
H        6.889515381   6.277640009   0.334162564
H        6.581214620  -0.942724526   6.239093348
H        6.413538747  -1.024551261   1.090891832
H       -0.698617126   5.742534411   4.895630606
H       -0.406558083   4.472295942  -0.447519353
H        0.934675403  -0.024428280   4.711275435
H       -1.009442355   0.939043599  -0.083336255
H        6.405429137   0.773103863   1.041406774
H        4.787954002  -1.012460097   6.183282916
H        5.832079556   5.596746641   1.616334293
H        4.687426746   4.851887207   5.798359583
H        0.732596791   1.212781914   0.284459583
H        0.138785298  -1.394085208   5.561871928
H       -1.489132978   5.615050284   0.425162699
H        0.132458553   7.118991791   5.705550226
H        5.135351114   6.674844613   0.348918484
H        6.431354042   4.702297912   5.397096534
H        7.201933729  -0.158130157  -0.273478769
H        5.607846628   0.333264586   7.055033095
H       -0.397915594   4.520170241   1.348171079
H       -0.626908907   5.822491743   6.692601709
H       -0.359458392   0.518239807   1.538855244
H        1.125521710  -0.207777348   6.491008175
H       -1.440152501   0.371915003   5.068223007
H        0.496760404  -0.760843691  -1.006280407
H        1.713457095   5.474198370   4.871048705
H        0.490337641   6.700107328  -0.482691334
H        5.740755855  -0.154362782   4.123748004
H        4.275816962  -0.157600512   0.322891960
H        4.984340073   7.222977057   6.051950105
H        6.311324687   3.970959304  -0.095391463
H        0.990959953   4.276576375   5.783563772
H        1.481884767   5.714660584   0.445893152
H       -0.532038250   1.487097151   5.906239484
H       -0.640781334  -1.432392214   0.045542500
H        6.598605499   7.134250853   5.623387372
H        5.704660986   4.949033031  -1.286191498
H        6.483414612   1.105150449   4.961401371
H        5.046574864  -1.013594784  -0.913370651
H        0.949314862  -1.215445520   0.523922628
H       -1.245900125   0.230914811   6.739296168
H        0.467382526   6.814248781   1.192659676
H        1.787138698   5.528050092   6.546779732
H        5.042435858   0.649654654  -0.955950672
H        4.821529794   1.045886931   4.892117221
H        4.665812243   4.324995622  -0.130574546
H        6.090685590   6.411976947   7.033625104
