CRYSTAL
PRIMVEC
11.2820 0 0
0 11.1747 0 
0 0 11.3552
PRIMCOORD
96 1
Pb       2.797831649   2.860549619   2.979505495
Pb       2.770349922   3.007305241   8.726548315
Pb       3.108995230   8.527025447   3.074978300
Pb       2.867625862   8.646067782   8.782536888
Pb       8.488109270   2.512202268   2.854621361
Pb       8.441027775   2.728867196   8.484134712
Pb       8.775822433   8.086052039   2.925512438
Pb       8.503735889   8.320930272   8.542218884
Cl       2.690788526   3.238925832   5.847751136
Cl       2.920901985   2.161605890   0.151953975
Cl       3.206934323   8.569479297   5.939443693
Cl       2.572392081   8.977570166   0.294915175
Cl       8.258560074   3.164157136   5.645315680
Cl       8.195993948   2.280349074  -0.014253966
Cl       8.201418508   7.851374560   5.720722263
Cl       9.017098443   8.297267489   0.056724222
Cl       2.490274670   0.118829099   3.554513828
Cl       2.467716568   0.254486259   8.105082074
Cl       3.274468570   5.692680431   3.102365103
Cl       3.338827581   5.860488922   9.061154059
Cl       9.225662429  -0.295142635   3.166910003
Cl       8.963926171  -0.094051214   8.108086657
Cl       8.276521467   5.284882170   2.394620504
Cl       8.065628283   5.504763162   9.153043640
Cl       5.587125249   2.397864061   3.231168761
Cl       5.591065109   2.356388529   8.417945691
Cl       5.960068434   8.104553990   2.712614811
Cl       5.704803380   8.941072098   9.144978376
Cl      -0.034039696   3.020338753   2.361997402
Cl      -0.047495391   3.427369541   8.847424638
Cl       0.345977264   8.075472130   3.502407398
Cl       0.073146564   7.990947262   8.225407272
C        5.496487635   5.579170727   6.352697507
C        5.393123089   4.824552478   0.229113698
C        6.106273364  -0.480381528   5.706658688
C        5.857380546  -0.454505577   0.779032750
C       -0.293156792   5.223737900   5.570423320
C        0.707655841   5.798030802   0.330429343
C       -0.129926004   0.918771746   5.766538946
C       -0.138227813   0.008763760  -0.521486479
N       -0.682455052   5.412900013  -0.041271897
N        0.969813731   5.961608438   5.861421915
N        0.312920805   0.046155337   0.899892313
N        0.149791026  -0.544132560   5.852012235
N        5.837871955   6.224913378  -0.027698924
N        6.045701239   5.499680013   4.968488150
N        5.621478474   0.444278955  -0.381837876
N        5.009780312   0.524056440   5.828782769
H        4.891366490   6.488116151   6.435899037
H        5.484089587   4.262995153  -0.707303324
H        6.044238493  -1.169807753   6.555082824
H        5.064332313  -1.206801384   0.790917540
H       -0.209743023   4.758770842   4.581271156
H        1.118602904   6.429090179  -0.463875369
H        0.363643739   1.311017921   4.872762833
H        0.648035856   0.446909893  -1.145338938
H        5.838976974   0.144313400   1.696635019
H        7.066206512   0.047889079   5.718010702
H        4.352124281   4.845763716   0.563869236
H        6.334742283   5.609491179   7.057033310
H       -1.066331983   0.581710940  -0.609283352
H        0.268793678   1.395999203   6.667345567
H        1.301886236   4.883261239   0.433609906
H       -1.126704379   5.934982422   5.591035525
H        6.039575768   4.392032146   0.999116769
H        4.880013614   4.693816768   6.532657012
H        6.830511053  -0.942430845   0.653445329
H        5.983363293  -1.033011691   4.768144851
H        0.684346385   6.344411868   1.280082024
H       -0.429725573   4.458444789   6.340301221
H       -0.312043548  -1.035412014  -0.800806862
H       -1.212570837   1.055415788   5.704399790
H        1.158753659  -0.725747628   5.958689271
H        0.530667941   1.010902355   1.196620368
H        1.144144008   6.663709906   5.123080041
H       -0.680795917   4.859618684  -0.919927382
H        5.118024980   1.089842288   6.695635418
H        4.722781040   0.957639536  -0.288814960
H        6.652340967   6.315602626   4.790373347
H        5.204651489   6.682189384  -0.701000289
H        1.764770219   5.297688982   5.899593731
H       -1.279166347   6.252239802  -0.170440579
H       -0.167651379  -1.035003773   5.001902827
H        1.161644403  -0.535765680   1.011134989
H        5.288849281   5.490867500   4.262168754
H        6.775943866   6.214862354  -0.469088939
H        4.087456761   0.068986313   5.859821289
H        5.602951106  -0.112707329  -1.252190256
H       -0.420023406  -0.296498095   1.547849815
H       -0.331821489  -0.952823640   6.668208356
H       -1.116969596   4.841263481   0.697759501
H        0.887442428   6.478431897   6.756241652
H        6.385266101   1.145857533  -0.450073932
H        5.029520503   1.175746301   5.021140199
H        5.877253924   6.788943745   0.842964836
H        6.628762620   4.652213952   4.863159589
