CRYSTAL
PRIMVEC
11.2820 0 0
0 11.1747 0 
0 0 11.3552
PRIMCOORD
96 1
Pb       2.815418849   2.773921641   2.853025000
Pb       2.763629417   2.730619564   8.684401420
Pb       3.089529942   8.448754199   2.894868587
Pb       2.997237483   8.420538789   8.648204403
Pb       8.526750076   2.764388500   2.970053802
Pb       8.374439488   2.737420642   8.655641120
Pb       8.631767113   8.383023160   3.100782234
Pb       8.545695423   8.339981046   8.703502636
Cl       3.087404124   2.793305140   5.796784636
Cl       2.533547649   2.074700558   0.122930942
Cl       2.584112189   8.017599013   5.790684527
Cl       3.339877141   9.023129703   0.121368660
Cl       8.401042274   2.817323050   5.805670177
Cl       8.175752122   2.700753810   0.149331634
Cl       9.030289198   7.944166758   5.935485804
Cl       8.568074396   8.230281276   0.254986716
Cl       3.618738996   0.067902847   3.172619364
Cl       2.192416315  -0.009039162   8.258941721
Cl       2.639985123   5.641512326   2.433823536
Cl       2.982680577   5.581035908   8.565930351
Cl       7.819462807   0.009500753   3.088688776
Cl       8.882884445  -0.032281241   8.240960203
Cl       9.077471573   5.591792230   2.733691312
Cl       8.317699431   5.536656304   8.907381808
Cl       5.681006597   3.321237633   2.887200310
Cl       5.548998221   2.155509227   8.829322254
Cl       5.890033100   7.607658472   3.113325196
Cl       5.773652854   8.416218748   8.407669499
Cl       0.056369391   2.329974106   3.224864975
Cl      -0.068230144   3.047597066   8.284093619
Cl       0.262565631   8.738354406   2.483837394
Cl       0.158636745   8.053566744   9.242875648
C        5.905100615   5.597143394   6.221392444
C        5.384471715   5.685159968  -0.256825219
C        5.742016474  -0.336604956   6.144790924
C        6.364458273  -0.486325196   0.013664592
C        0.236171274   5.232634307   5.372195521
C        0.091233234   4.878134637  -0.224491069
C        0.025693641  -0.462390974   5.117112093
C       -0.618426305   0.393117000  -0.012481299
N        0.069667152   6.144840303   0.553246830
N        0.052955078   5.863528303   6.708645312
N        0.520748842  -0.560838644  -0.091859205
N       -0.082220414   0.640606353   6.110048166
N        6.644972542   5.614414606   0.533931792
N        4.663429922   5.582041070   5.394693268
N        5.481385183   0.657139061   0.377064379
N        5.759406268   0.975586732   5.439812757
H        5.618154026   5.544394736   7.276240838
H        5.638043555   5.627409649  -1.319825962
H        4.828949709  -0.872208937   5.859938743
H        7.369554432  -0.093523826  -0.167569574
H        1.004002586   4.456516269   5.456397596
H        0.943867068   4.910083870  -0.911526142
H        0.961652566  -0.343754140   4.561529353
H       -0.630618220   0.999473194  -0.924162295
H        5.962569644  -0.965276602  -0.885511032
H        5.759678230  -0.152286183   7.222232505
H        4.885220998   6.636294861  -0.037075114
H        6.447101243   6.528875904   6.027278721
H       -0.474358004   1.028751270   0.868112669
H       -0.822205258  -0.390531143   4.427816758
H       -0.841479994   4.802279960  -0.792964530
H        0.546560350   6.002889252   4.658035390
H        4.740391830   4.848738699   0.037105713
H        6.524007706   4.737705102   5.940453033
H        6.377921919  -1.194532238   0.845497405
H        6.628623243  -0.905793699   5.844653568
H        0.189794059   4.035874373   0.470004212
H       -0.716869280   4.791809766   5.064257109
H       -1.546809517  -0.182028166   0.076024337
H        0.012259103  -1.419441510   5.648245932
H       -0.105913944   1.552433879   5.635477955
H        1.414528603  -0.053044447  -0.170279854
H        0.915386873   6.330533559   7.019746289
H        0.008217927   6.956169904  -0.085249133
H        4.925076198   1.544455459   5.675631773
H        5.407490246   1.314704693  -0.422903632
H        4.032052234   6.375590979   5.633711328
H        7.284489427   6.400910824   0.305000091
H       -0.184963936   5.141368630   7.413202392
H        0.922583229   6.226194089   1.137240048
H        0.719751664   0.616321255   6.770234861
H        0.436764820  -1.199248909  -0.903967351
H        4.133887456   4.700176286   5.538190883
H        7.153480520   4.727787752   0.360052487
H        5.752501502   0.834995411   4.420341979
H        5.851546456   1.173380391   1.187605221
H        0.555508507  -1.162046133   0.758637661
H       -0.938109992   0.545033440   6.692401055
H       -0.740744206   6.163056620   1.202027271
H       -0.705672989   6.572059561   6.658730579
H        4.535426522   0.328929021   0.618859255
H        6.610732909   1.524405194   5.668996400
H        6.451718002   5.677233800   1.543267573
H        4.894519395   5.664873368   4.394643643
