CRYSTAL
PRIMVEC
11.2820 0 0
0 11.1747 0 
0 0 11.3552
PRIMCOORD
96 1
Pb       2.924198020   2.833635227   3.097956887
Pb       2.979831270   2.918196238   8.697291317
Pb       2.793143266   8.307765119   3.077074998
Pb       2.864725331   8.446749328   8.597534133
Pb       8.504392070   2.696808244   2.924410550
Pb       8.686802328   2.742001196   8.669338335
Pb       8.337952233   8.313472696   3.013042338
Pb       8.610686940   8.434110474   8.586702186
Cl       3.449151830   2.977344319   5.921540470
Cl       2.955658247   2.710839170   0.223477400
Cl       3.357668042   8.111323734   5.835685017
Cl       2.624943292   8.421578612   0.126203375
Cl       8.189055209   3.096666623   5.796824620
Cl       9.130026214   2.333895213   0.102634527
Cl       8.050933781   7.918489509   5.834067500
Cl       8.659119339   8.221200359   0.109733609
Cl       2.766576173  -0.025167134   2.767285212
Cl       2.494823873   0.120942770   9.028636722
Cl       2.529450893   5.569957783   2.556293692
Cl       3.705077698   5.741695346   8.812610240
Cl       8.252693611  -0.088896179   3.676028557
Cl       9.154420080   0.009526607   7.906307822
Cl       8.967693470   5.518127532   2.820988866
Cl       8.053778278   5.610664317   8.741587380
Cl       5.695356302   2.721651629   2.713678566
Cl       5.802564624   2.200237878   8.799795841
Cl       5.542469570   8.392726258   2.339856917
Cl       5.717583008   9.090904181   8.894982624
Cl       0.048345980   2.417937639   3.239797683
Cl       0.154581454   3.285486583   8.209413468
Cl      -0.100889895   8.497298443   3.350195532
Cl       0.066795633   7.746415876   8.329968013
C        5.644063688   5.675392566   4.861758252
C        5.861439114   5.144877536   0.458422904
C        5.175841081  -0.038954326   5.308474560
C        6.289737603   0.074034903   0.447793545
C        0.381136070   5.469353044   5.363278041
C        0.139460764   5.250406128  -0.223138383
C        0.918272901  -0.088655041   6.114434166
C       -0.371486125  -0.570631855   0.216904415
N        0.052544322   6.488620608   0.601781284
N       -0.936662841   5.527461492   6.058497794
N        0.620217824   0.533306747   0.328986400
N       -0.261668511  -0.052622622   5.212139178
N        5.796257269   6.459464154  -0.241045096
N        5.755375781   5.302314441   6.299797188
N        4.853311666   0.025713816   0.055228886
N        6.192177571   0.030114706   6.397123110
H        6.498491577   5.246954601   4.326900641
H        6.089403012   4.366162172  -0.278747788
H        5.321770873  -0.972127945   4.754370868
H        6.352242874   0.195893971   1.533417183
H        0.920099872   4.585592565   5.723658140
H        1.057444234   4.717375405   0.051053796
H        0.809793261  -0.945248934   6.788379507
H       -0.996151507  -0.386939449  -0.663828007
H        6.755042687   0.924795376  -0.059804400
H        5.317569086   0.821115768   4.645834261
H        4.889498659   4.949227909   0.922778106
H        5.643321753   6.765651062   4.787057086
H       -0.990527439  -0.580231224   1.119714212
H        0.939405173   0.837754698   6.697752632
H        0.161355581   5.538752848  -1.279076789
H        0.941047145   6.381001721   5.602079258
H        6.646861613   5.194368931   1.220759598
H        4.705272798   5.268633037   4.472711312
H        6.762343386  -0.864644289   0.138530020
H        4.179924584  -0.014828368   5.760855222
H       -0.737710531   4.627754110  -0.014731751
H        0.200567443   5.397938101   4.287475270
H        0.177040160  -1.512062888   0.116684913
H        1.822969386  -0.184767100   5.503457080
H       -1.127749274   0.012821724   5.769692726
H        0.130759257   1.436625039   0.416893400
H       -0.802534308   5.589489085   7.076709750
H        0.881152918   7.096331482   0.444379365
H        7.143144133   0.035757506   6.001063946
H        4.363086929   0.922126246   0.247438356
H        6.624645260   5.659773120   6.728420277
H        5.080337440   6.427207515  -0.991571835
H       -1.515747870   4.684795155   5.870501927
H        0.016444989   6.264162717   1.603643204
H       -0.314125150  -0.905144189   4.620721109
H        1.234774492   0.562018685  -0.507132892
H        5.759798064   4.278635005   6.405099891
H        6.700267892   6.685015356  -0.676080715
H        6.110901420  -0.772766847   7.049463473
H        4.350471165  -0.718179899   0.559847610
H        1.235249031   0.413594414   1.157506091
H       -0.218988024   0.766718149   4.567981017
H       -0.805995233   7.031941195   0.379980175
H       -1.495566252   6.349147020   5.771455045
H        4.756432797  -0.163606585  -0.952951424
H        6.079361587   0.881222980   6.983474988
H        5.568324949   7.213927127   0.432896245
H        4.961317995   5.660065057   6.860442373
