CRYSTAL
PRIMVEC
11.2820 0 0
0 11.1747 0 
0 0 11.3552
PRIMCOORD
96 1
Pb       2.889210066   2.836474277   2.868941784
Pb       2.779732522   2.967679183   8.498108901
Pb       3.020647149   8.428223513   2.920594933
Pb       2.893190663   8.596678187   8.576500140
Pb       8.521331281   2.607910484   2.926246655
Pb       8.334962069   2.653222308   8.626771263
Pb       8.626384033   8.268600783   3.081903110
Pb       8.546290670   8.300150416   8.719182261
Cl       2.402310553   3.282937385   5.659866775
Cl       2.622565438   2.709426625  -0.009451459
Cl       3.442630164   8.255307822   5.757516638
Cl       2.753041565   8.786923209   0.076599963
Cl       8.941391345   2.802506244   5.753483071
Cl       7.840738221   2.674313344   0.095361827
Cl       8.183675911   8.013013948   5.877424849
Cl       8.276739733   8.112547524   0.210672812
Cl       2.365888847   0.050128972   3.354862583
Cl       2.611732405   0.194153263   7.958932487
Cl       3.583708105   5.641501679   2.460306472
Cl       2.880681359   5.788714720   8.714472276
Cl       9.249061438  -0.135538772   3.199153372
Cl       8.735050639  -0.101699372   9.143523559
Cl       8.285482517   5.435256825   3.024902808
Cl       8.187561781   5.464561157   8.762251576
Cl       5.675800377   2.222459509   3.325856457
Cl       5.550743249   2.576456973   8.018305926
Cl       5.821632625   9.115046111   2.846707758
Cl       5.709832939   8.746767089   8.851120254
Cl       0.066418235   3.270474066   2.664301264
Cl      -0.065409797   2.695636147   8.658831682
Cl       0.218396679   7.519823577   3.018336062
Cl       0.082972955   8.355131326   9.013021614
C        5.622509396   5.242307133   5.543610143
C        5.259351860   5.585384824  -0.467660920
C        6.469292088  -0.078477604   5.918714188
C        5.135385604   0.483929276  -0.014098022
C        0.012339923   6.050517224   6.448446558
C       -0.345635372   5.456512917  -0.247057409
C       -0.216405361  -0.610710760   6.182032293
C       -0.137717827   0.087158666   0.488915608
N        0.991879411   5.697641925   0.371554588
N       -0.164742094   5.193269208   5.244502157
N        0.535960941   0.070236800  -0.841090087
N        0.154979875   0.715933823   5.615949619
N        6.320822193   5.526462219   0.572653927
N        5.636018988   5.995785788   6.831828848
N        6.264024593  -0.486002605   0.065908024
N        5.016736033   0.040845467   5.606945744
H        6.558691824   5.449884190   5.014263595
H        5.739832746   5.510908492  -1.446829745
H        6.892852497   0.930467998   5.950489906
H        5.156219998   0.967268499  -0.997851283
H       -0.796885512   6.787111408   6.470493584
H       -0.201739078   5.165227367  -1.291973579
H       -1.050944881  -1.015010370   5.599803236
H       -1.214837125  -0.006753648   0.323781699
H        5.263800483   1.230421009   0.775883973
H        6.941845339  -0.664973426   5.125599847
H        4.724369247   6.536096346  -0.373492255
H        4.766120597   5.581826640   4.951588547
H        0.096223444   1.031736761   0.992920899
H       -0.510149025  -0.474539315   7.227929631
H       -0.930986460   6.379205236  -0.179009503
H        0.986088975   6.548564899   6.378424741
H        4.568179552   4.750563337  -0.309907712
H        5.535619532   4.174155896   5.765389067
H        4.202313215  -0.072009517   0.127312083
H        6.580103991  -0.578555729   6.886595052
H       -0.833204913   4.649177625   0.310592340
H       -0.020921323   5.414748775   7.340101990
H        0.233751251  -0.756784810   1.079619237
H        0.656390538  -1.269996132   6.116401997
H       -0.660176271   1.360946413   5.592517655
H        0.235550237   0.869840008  -1.434495962
H       -0.162323072   5.766936078   4.380310681
H        1.512024120   6.433930906  -0.127613194
H        4.899383519   0.561405469   4.718927874
H        7.166109312  -0.009196819  -0.063199995
H        5.721488980   7.005851751   6.658894224
H        6.985368247   6.322342196   0.486029294
H       -1.043102683   4.648692687   5.283384061
H        1.564240879   4.835744225   0.364923903
H        0.535629675   0.609467072   4.659132043
H        0.327315885  -0.811224276  -1.350194245
H        6.443921193   5.718804184   7.425399894
H        6.869915592   4.647638366   0.494685565
H        4.520267842   0.551100118   6.352026667
H        6.186559871  -1.199774233  -0.683016334
H        1.553776855   0.137115244  -0.735812945
H        0.891792983   1.160491431   6.181425176
H        0.883441174   6.015933696   1.351511645
H        0.610635969   4.506996975   5.178926937
H        6.260521505  -0.986461683   0.979619349
H        4.564872031  -0.887244658   5.517495572
H        5.900293848   5.560326085   1.512603265
H        4.764680525   5.849159377   7.372000550
