CRYSTAL
PRIMVEC
11.2820 0 0
0 11.1747 0 
0 0 11.3552
PRIMCOORD
96 1
Pb       2.789483478   2.957626243   3.041078953
Pb       2.818067973   2.905798039   8.708269315
Pb       2.972742172   8.477161574   3.022297583
Pb       2.948136604   8.480953194   8.649776041
Pb       8.519322934   2.702949692   2.840536922
Pb       8.425878266   2.724966490   8.544875780
Pb       8.646019124   8.361331665   2.894738902
Pb       8.501058157   8.224467966   8.475125198
Cl       2.955192487   3.437527944   5.871335748
Cl       2.649960171   2.699642249   0.186787010
Cl       2.662600430   8.109120994   5.839954271
Cl       2.991220153   8.855138293   0.149004258
Cl       8.351093025   2.111011929   5.689419404
Cl       8.265512293   3.063207808   0.016860514
Cl       8.445234483   9.014083819   5.686771540
Cl       8.640089689   7.920897910   0.010815435
Cl       3.331385234   0.141751149   3.242892142
Cl       2.597147438   0.104685489   8.490353477
Cl       2.417810216   5.742524077   2.547836718
Cl       2.415609808   5.716190838   9.111041143
Cl       8.043529517  -0.069960402   2.392310629
Cl       8.208981536  -0.120794220   8.923066181
Cl       8.443821288   5.534099357   3.264135704
Cl       8.777011996   5.469997284   7.782718002
Cl       5.639853885   3.206711778   2.944889329
Cl       5.655917303   3.198665178   8.499039694
Cl       5.800022960   8.208760888   2.645632815
Cl       5.736156198   8.130266962   8.899379473
Cl       0.005944666   2.364202165   2.805500564
Cl       0.001595717   2.766716759   8.281770574
Cl       0.164383786   8.795860363   2.581774273
Cl       0.065230888   8.465479763   8.636122169
C        5.528669492   6.040859687   5.705780220
C        5.073126822   5.590431511  -0.027492491
C        5.192942743  -0.025921884   6.264128998
C        5.269989455   0.490915444  -0.086665855
C       -0.240214212   5.610641414   5.232029900
C       -0.424597282   5.207584384   0.115105232
C        0.440124504  -0.104502216   5.549763527
C       -0.347481252   0.101358843  -0.250142228
N        0.421023843   6.434086674   0.131751601
N        0.645647836   5.623963144   6.427179857
N        0.886375846   0.092776985   0.584204160
N       -0.385226531  -0.060222940   6.790627280
N        6.406032163   5.606721706   0.637686709
N        6.230590821   4.727821179   5.722352010
N        6.085010905  -0.755683907  -0.023798930
N        6.043361862  -0.031944941   5.039094175
H        5.898313904   6.625996385   4.856080177
H        5.222803206   5.530707238  -1.109600637
H        4.654098071   0.926925568   6.310736978
H        5.950694634   1.344807606  -0.183387016
H        0.373273348   5.779800633   4.339740937
H        0.234120952   4.333265744   0.176790870
H        1.495041720  -0.052255974   5.837493087
H       -0.047863667   0.177720902  -1.300206985
H        4.685638553   0.570925257   0.836086867
H        5.841413249  -0.144160852   7.140599328
H        4.539550166   6.511028091   0.230899625
H        5.730104505   6.560739374   6.649786686
H       -0.959461810   0.964336793   0.036839993
H        0.169664185   0.749466361   4.918674838
H       -0.999822484   5.190728932  -0.816866293
H       -0.991669277   6.398002427   5.345623198
H        4.516495365   4.717561568   0.329433082
H        4.454786169   5.854708256   5.603033094
H        4.599815267   0.428763233  -0.951397523
H        4.475485857  -0.851501296   6.195760864
H       -1.103719115   5.237770947   0.974048279
H       -0.737165044   4.636720950   5.177788117
H       -0.901725344  -0.828133876  -0.078334450
H        0.236448666  -1.043025800   5.022994640
H       -0.214214396   0.824209574   7.312720936
H        1.442138635   0.963565356   0.441586326
H        1.162038572   6.518779349   6.493954666
H        1.060764508   6.428477014  -0.686984614
H        6.728352178   0.749074529   5.070616021
H        6.709514027  -0.727432073   0.806842831
H        7.247268214   4.855393153   5.809764426
H        6.978342768   6.424055370   0.353734087
H        1.359962214   4.870581246   6.362198584
H        1.012012541   6.450255823   0.984774915
H       -0.160509754  -0.857714741   7.418036704
H        1.500300853  -0.715407096   0.361474406
H        6.043854194   4.196441755   4.847190502
H        6.953450613   4.750811360   0.411696185
H        5.452314931   0.054569211   4.194021928
H        6.685716883  -0.837825584  -0.862209663
H        0.651099701   0.033412098   1.582287849
H       -1.388675058  -0.112759192   6.568699525
H       -0.162095625   7.280840873   0.107611909
H        0.101817912   5.481705716   7.287870536
H        5.482582031  -1.586970475   0.039841596
H        6.608878864  -0.895123562   4.980072066
H        6.319402226   5.646159432   1.661336244
H        5.923140588   4.155997493   6.534338651
