CRYSTAL
PRIMVEC
11.2820 0 0
0 11.1747 0 
0 0 11.3552
PRIMCOORD
96 1
Pb       2.889615135   2.941381570   3.076556550
Pb       2.883615190   2.785193248   8.739954723
Pb       2.944691405   8.554170158   2.963560043
Pb       2.925265894   8.385142112   8.674887154
Pb       8.426846115   2.941810030   2.914183120
Pb       8.536423485   2.826878561   8.731513781
Pb       8.512150419   8.547816869   2.913592306
Pb       8.517395394   8.328032363   8.634701098
Cl       3.326793103   3.246573130   5.921720774
Cl       2.653722889   2.988791995   0.225876354
Cl       3.042067074   8.190146161   5.823642713
Cl       2.693954860   8.522655409   0.152288570
Cl       8.281959075   2.645304131   5.806771184
Cl       8.835343596   3.298673966   0.141497269
Cl       8.598241493   8.859995031   5.826950461
Cl       8.898023664   8.224352595   0.151548359
Cl       3.317784092   0.172562178   2.861662076
Cl       2.299464845  -0.008397251   8.522739145
Cl       2.666154516   5.750374226   2.733558671
Cl       3.396050202   5.594228443   8.937155884
Cl       7.978086906   0.176969456   2.571564952
Cl       8.914185266   0.002043228   8.906804353
Cl       9.037171438   5.762949707   3.160731736
Cl       8.156244654   5.587463655   7.953016112
Cl       5.648319403   3.329620748   2.435122234
Cl       5.710220794   2.261990814   9.034484553
Cl       5.702701883   8.110477225   2.435795737
Cl       5.717911817   8.663756097   8.317511805
Cl       0.016974829   2.793743893   3.227204972
Cl       0.066375627   3.257059453   8.457129349
Cl       0.075903015   8.985376256   3.032161208
Cl       0.067492027   8.177785159   8.467816841
C        6.146599718   5.808265433   5.124844547
C        6.217565948   5.727746710  -0.467472707
C        5.407248545   0.005459113   5.540478151
C        5.628949698  -0.519616576  -0.359952039
C        0.472440532   5.919765587   5.585743202
C        0.136228498   5.845674464  -0.406537242
C       -0.250170606   0.377451826   5.981316329
C       -0.075358620   0.422957641   0.465114181
N        0.088516285   5.175863093   0.921412193
N       -0.500225653   4.803927412   5.752557818
N        0.045720970  -0.847160150  -0.305335111
N        0.413094220  -0.955305053   5.970873684
N        5.003377093   5.712043700   0.393259518
N        5.262594233   5.798182828   6.322844063
N        5.554647953   0.655992391   0.551000489
N        6.554043849   0.087016734   6.487107976
H        6.766538118   4.906196619   5.151212388
H        7.105131800   5.794712520   0.170478526
H        5.806664234  -0.035380215   4.520646001
H        6.557524440  -0.449657474  -0.936954101
H        1.476178659   5.490865171   5.498016550
H        1.007702175   5.472183135  -0.954667418
H        0.151367378   0.976370453   5.156588805
H       -1.002429846   0.923910279   0.166149799
H        4.767365754  -0.490897446  -1.034640510
H        4.783564945   0.898712926   5.664122783
H        6.154958193   6.592711948  -1.137325339
H        6.782135112   6.699161756   5.172649289
H        0.791238329   1.055437760   0.240636385
H       -0.054940511   0.861059379   6.944280444
H        0.218321575   6.923642147  -0.248009147
H        0.412813126   6.568186656   6.465625439
H        6.236551362   4.803885129  -1.055103594
H        5.525079555   5.825146339   4.223996628
H        5.615457477  -1.431522443   0.246635676
H        4.831505638  -0.900398889   5.762859330
H       -0.783294506   5.608979351  -0.951070839
H        0.217410627   6.476628020   4.677040401
H       -0.099725590   0.178877627   1.532112542
H       -1.324535937   0.226178243   5.844368981
H        1.421346637  -0.871245753   6.148939817
H        0.069142152  -0.667824950  -1.317383587
H       -0.298638818   4.264148516   6.622848361
H        0.945261794   5.376897402   1.477070616
H        7.125318801   0.937319258   6.292531659
H        5.541089383   1.528859559   0.003287840
H        5.832557347   5.802312458   7.181842062
H        4.973918839   6.554932260   0.995734681
H       -0.448433642   4.151307692   4.947272491
H        0.019883905   4.156519593   0.819736969
H        0.275443333  -1.431620720   5.054162354
H       -0.760008192  -1.479989026  -0.124233894
H        4.649489676   4.957344929   6.326905845
H        5.017183816   4.889250897   1.026212529
H        7.178257306  -0.737800471   6.382265932
H        6.372981702   0.665905877   1.193146967
H        0.912822284  -1.365358998  -0.063093119
H        0.046980300  -1.575313112   6.717976309
H       -0.729349785   5.474621129   1.485654959
H       -1.466457766   5.145107765   5.822580199
H        4.711409004   0.620498757   1.153716003
H        6.243409732   0.133011104   7.464699050
H        4.155377796   5.669855845  -0.194141936
H        4.644453650   6.628495129   6.335470725
