CRYSTAL
PRIMVEC
11.2820 0 0
0 11.1747 0 
0 0 11.3552
PRIMCOORD
96 1
Pb       2.736993730   2.897777101   2.907086836
Pb       2.835389598   2.749477229   8.674963366
Pb       2.968613708   8.446146105   2.847600828
Pb       3.116110902   8.405276518   8.517166195
Pb       8.410267355   2.696449755   3.029004780
Pb       8.372548702   2.671402382   8.617027526
Pb       8.641155848   8.363514716   2.891837936
Pb       8.690845100   8.206511538   8.662092026
Cl       2.601765379   3.047911322   5.775979086
Cl       2.787454163   2.295335887   0.101741488
Cl       3.253474636   7.778844173   5.679156116
Cl       2.856400216   8.565674552   0.001233310
Cl       8.285713732   1.910234336   5.819356612
Cl       8.171344529   3.075370617   0.136393914
Cl       8.707232312   8.700753719   5.784467556
Cl       8.744197830   7.487534512   0.117741591
Cl       3.485030971   0.111160184   3.072998957
Cl       2.780423714   0.012850836   7.926189736
Cl       2.772623167   5.655395378   2.298756875
Cl       2.630023507   5.606199711   8.929254576
Cl       8.398543378  -0.038690173   2.089652982
Cl       8.741352785  -0.118340861   9.125901815
Cl       8.343250977   5.530729971   3.390888400
Cl       8.753568730   5.438783767   7.834270416
Cl       5.584976392   3.046053798   3.025969706
Cl       5.611465282   2.301671731   8.696548775
Cl       5.777530114   8.202756977   2.723248001
Cl       5.920474241   8.014682592   8.495545231
Cl      -0.073804061   2.677878331   2.761466783
Cl      -0.022393102   2.542635352   8.540338805
Cl       0.130991343   8.344147098   2.736392888
Cl       0.265293357   8.272188047   8.337084191
C        5.636949639   5.078493869   6.239734713
C        5.316541764   5.368281550  -0.280637777
C        5.765879051  -0.548196257   6.104709397
C        5.497672416  -0.465326731  -0.452822342
C        0.204326481   6.040964632   5.226529285
C       -0.116939585   4.991047642  -0.160737227
C        0.320196520  -0.109756893   5.316178870
C        0.334105447  -0.320765008  -0.010875807
N        0.502605522   6.325794762   0.051579051
N        0.409347533   5.322399453   6.516147602
N       -0.427514659   0.960437159   0.033987065
N       -0.346422368  -0.153651246   6.648061770
N        6.114535954   5.533648758   0.965506216
N        6.144260322   6.337375736   5.626929817
N        5.688756923   0.650228143   0.518882308
N        5.201535110   0.770964304   5.706862000
H        4.869860589   4.653160681   5.584215406
H        5.612320079   4.428204258  -0.761282330
H        6.575093503  -0.807505035   5.415413202
H        6.344595965  -0.465878419  -1.146180377
H        1.169674414   6.134333322   4.720559381
H       -0.762561463   5.039615638  -1.044614179
H        1.402860774  -0.065210396   5.474019869
H        1.402860752  -0.089589707  -0.031765070
H        4.559170228  -0.296787015  -0.992054777
H        4.966224788  -1.295622570   6.060117126
H        5.522252413   6.214459771  -0.945603463
H        5.205114148   5.321803805   7.217181418
H        0.043960343  -0.866504457  -0.915957410
H       -0.020399344   0.784013055   4.781089854
H       -0.712522454   4.735851474   0.721451599
H       -0.211596627   7.030271683   5.443900301
H        4.256078996   5.347667091  -0.013441183
H        6.476829046   4.384836097   6.352583586
H        5.449890249  -1.404636723   0.107729122
H        6.159255180  -0.466224067   7.123325131
H        0.684997196   4.258344946  -0.306973562
H       -0.499953650   5.468362091   4.613598447
H        0.088965249  -0.907075684   0.881469433
H        0.045900423  -1.013705197   4.760398253
H       -0.113003268   0.675591845   7.223148572
H       -0.247067172   1.524098541  -0.816255115
H        1.035409088   5.843273769   7.151264572
H       -0.231529748   7.031315262   0.230472903
H        4.757518746   0.711393662   4.768677343
H        5.738858013   1.553800870   0.032285119
H        5.348741525   6.979416764   5.442306210
H        7.122679912   5.568237837   0.762148698
H        0.860096459   4.404291594   6.356390038
H        1.055190964   6.612398978  -0.769388424
H       -0.066209237  -0.998403554   7.183286627
H       -0.177425619   1.525328921   0.868570763
H        6.661506582   6.145462110   4.748493049
H        5.953767392   4.748845229   1.623968829
H        5.952348857   1.479753876   5.692338816
H        6.576301969   0.515295776   1.047048664
H       -1.440418086   0.782633550   0.080862233
H       -1.370143913  -0.183590677   6.546136797
H        1.154537337   6.305979874   0.857816558
H       -0.496430906   5.195907970   7.009894713
H        4.913974181   0.688306646   1.201963399
H        4.472004542   1.060884755   6.373599113
H        5.878561724   6.413985136   1.466843298
H        6.796680632   6.819993329   6.259895769
