CRYSTAL
PRIMVEC
11.2820 0 0
0 11.1747 0 
0 0 11.3552
PRIMCOORD
96 1
Pb       2.987551945   2.973251936   3.032042847
Pb       2.882191708   2.637742087   8.730719414
Pb       2.871712316   8.617601633   2.891892525
Pb       2.881842953   8.231823628   8.539016842
Pb       8.605524682   2.941025418   2.984441400
Pb       8.501559680   2.663273980   8.694119144
Pb       8.489003791   8.565415332   2.883976080
Pb       8.511287776   8.200531561   8.535415209
Cl       2.882949452   2.721432239   5.861984152
Cl       2.681351839   2.948331687   0.181140095
Cl       3.174430121   8.554433476   5.744410457
Cl       2.886118629   8.357164479   0.049345192
Cl       8.763639821   2.733669144   5.805924381
Cl       8.589074585   2.991560315   0.127161984
Cl       8.377467888   8.588491617   5.741532314
Cl       8.277835517   8.250321744   0.057722729
Cl       2.559404996   0.206454255   2.964092784
Cl       3.519337138  -0.181843632   8.775281932
Cl       3.306260337   5.818191947   3.206421780
Cl       2.307935729   5.426106677   8.452014493
Cl       9.112712899   0.153309672   2.662484328
Cl       8.216385040  -0.171023100   9.053327560
Cl       7.979766785   5.769238451   3.124151164
Cl       9.010920500   5.438562561   8.401235101
Cl       5.799196022   2.504883076   3.269479044
Cl       5.690792554   3.157440034   8.921249367
Cl       5.678438907   9.147024481   2.831446363
Cl       5.709427168   7.661889503   8.562807621
Cl       0.160982555   3.651828798   3.110316118
Cl       0.044879606   2.231422364   8.383187711
Cl       0.033551742   8.166594479   2.506714146
Cl       0.053180693   8.916416412   8.521813679
C        5.732542969   5.110470269   6.155288286
C        5.426824415   5.467467545   0.457894525
C        6.012051039   0.330393520   6.197180384
C        5.660243531   0.563845555   0.468256860
C       -0.004876857   6.209633162   5.589834105
C       -0.147745192   5.711914464  -0.200179349
C        0.276788336  -0.110587433   5.453189558
C        0.477512333   0.352470223   0.159991747
N        1.098339634   5.668487185   0.614873678
N        0.154040213   4.824455250   6.112215885
N       -0.396482562  -0.852446650   0.048230124
N       -0.977894686  -0.034969240   6.254238228
N        6.662146948   5.506860081  -0.373060681
N        5.706817651   6.339138574   5.308591245
N        5.695341173  -0.718169720  -0.295335066
N        4.773609800   0.167899323   5.388200263
H        5.712891345   4.237378610   5.492724001
H        4.836036072   6.368025726   0.252223863
H        5.731289309   0.409942123   7.252314394
H        5.698627548   1.394025169  -0.246870767
H        0.895574117   6.468658766   5.021515737
H        0.129056506   5.793521889  -1.255907357
H        0.814639955  -1.025657505   5.726966076
H        0.308310193   0.814109376   1.137664192
H        6.522850948   0.593563228   1.141805166
H        6.522181851   1.239860674   5.861920412
H        5.719040819   5.438521079   1.512439225
H        4.856148714   5.116172875   6.811257124
H        0.220495428   1.044940056  -0.648359344
H        0.888596419   0.769403548   5.683260532
H       -0.741415050   6.577052498   0.116079887
H       -0.133837648   6.891803315   6.438199181
H        4.857676349   4.570150006   0.189962471
H        6.649371010   5.118876189   6.754252651
H        4.733169016   0.595821289   1.050906160
H        6.651119839  -0.545804157   6.039432767
H       -0.708476524   4.786123177  -0.029548156
H       -0.883304588   6.237678065   4.935439224
H        1.519971202   0.030457354   0.070493648
H        0.010847133  -0.120387197   4.391260620
H       -0.766052168  -0.037032024   7.260787956
H       -1.387890873  -0.595947800   0.122795842
H        0.960136038   4.770506972   6.761413650
H        1.675260184   6.517128541   0.465870855
H        4.126979415   0.969995765   5.535970792
H        6.567245996  -0.781152108  -0.850587710
H        4.850692040   6.356498535   4.721883473
H        7.215024970   6.363104979  -0.176298824
H        0.289374845   4.167909822   5.321549327
H        1.667863661   4.829622776   0.372888573
H       -1.602941121  -0.839130227   6.055645920
H       -0.201250141  -1.532936860   0.809152361
H        6.519855759   6.341081144   4.660118167
H        6.428132924   5.502714399  -1.374489333
H        4.263360033  -0.704395916   5.627054004
H        4.901462194  -0.758326896  -0.965124153
H       -0.256769901  -1.329783302  -0.865621983
H       -1.493500950   0.846509164   6.047749077
H        0.877304233   5.600063184   1.618016941
H       -0.681348297   4.527612409   6.636204913
H        5.649688705  -1.518405375   0.350403483
H        4.988738565   0.133992080   4.382906123
H        7.267280073   4.679464886  -0.188216061
H        5.725470230   7.184682046   5.891995002
