CRYSTAL
PRIMVEC
11.2820 0 0
0 11.1747 0 
0 0 11.3552
PRIMCOORD
96 1
Pb       2.781494657   2.967704897   2.955636032
Pb       2.938717228   2.836895103   8.597613682
Pb       2.996789915   8.430353008   2.851870360
Pb       2.878900401   8.470932712   8.622815379
Pb       8.408673245   2.805996406   3.089091165
Pb       8.618177058   2.796791512   8.732654763
Pb       8.418447617   8.289185672   3.005322036
Pb       8.648011705   8.283535735   8.686374613
Cl       2.747398988   3.437995647   5.779127880
Cl       2.920736611   2.769877118   0.089767919
Cl       3.393556603   8.196166972   5.730698443
Cl       2.482137246   8.930712762   0.065276910
Cl       8.753964343   3.476041463   5.927569929
Cl       8.186820739   2.241845953   0.225973355
Cl       7.960255588   7.992734060   5.873646417
Cl       8.981175855   8.747380622   0.178256218
Cl       2.408252957   0.093993384   3.283330907
Cl       3.002204073   0.052911272   7.950065167
Cl       3.349823462   5.690466522   2.388587533
Cl       2.858178895   5.667668798   8.622849288
Cl       9.022166416  -0.072780568   3.376052527
Cl       8.275256954  -0.059358253   8.356610785
Cl       8.046444106   5.522426069   2.341960879
Cl       8.851870224   5.543418586   9.399711569
Cl       5.572567778   2.528595096   2.935568235
Cl       5.808471904   3.159670230   8.447520662
Cl       5.771786339   9.117130451   2.589166123
Cl       5.762687288   8.407536210   8.915303953
Cl      -0.096488382   3.199535410   2.572069259
Cl       0.149281929   2.831112381   8.733717264
Cl       0.086004438   8.186522739   2.950017435
Cl       0.104255333   8.348746643   7.878065387
C        5.758573239   5.456396431   5.120576906
C        5.653469339   5.800327760  -0.347714418
C        5.753582394   0.391635708   5.355429834
C        5.192938997   0.403307160  -0.224453513
C        0.112937365   6.034677353   5.326376881
C        0.643253815   5.820138353  -0.306567543
C       -0.090018384   0.695144692   6.011920358
C        0.079549409   0.488276767  -0.220626938
N       -0.430524128   5.833818664   0.726402813
N        0.150772053   5.166406125   6.533079042
N        0.050788128  -0.252301268   1.070576156
N        0.181593501  -0.654834641   5.441755969
N        5.659720484   4.484891979   0.348976101
N        5.480920005   5.757937874   6.552614425
N        6.369953863  -0.505610689  -0.142604296
N        5.735281327  -0.631639249   6.436897217
H        6.837885804   5.329378045   4.999284554
H        5.577647262   5.621641701  -1.422750129
H        6.646833119   0.241209273   4.740123613
H        5.285088116   1.010412209  -1.131988855
H        1.017963415   6.651053281   5.311815600
H        0.557368923   6.732591289  -0.905812658
H       -0.105944901   1.419755674   5.189936842
H        0.991453424   0.206875810  -0.758669800
H        5.194085514   1.046720433   0.661171355
H        5.766480061   1.383887846   5.821249992
H        6.586196195   6.322223858  -0.111252143
H        5.396389540   6.293327242   4.515191425
H        0.080227219   1.561067585  -0.008382047
H        0.703715022   0.937922153   6.723041897
H        0.506646420   4.936909373  -0.938546807
H       -0.777417714   6.669799148   5.381377149
H        4.787369311   6.369933273   0.005858417
H        5.226929437   4.538978674   4.851638457
H        4.280882062  -0.203392575  -0.252952214
H        4.854509519   0.273310388   4.741803826
H        1.614524154   5.785758057   0.197715374
H        0.070603306   5.388468779   4.441744492
H       -0.809564111   0.212689476  -0.799348172
H       -1.062104506   0.671614696   6.515166679
H        1.075280056  -0.641161628   4.916133115
H        0.877414073  -0.039169724   1.662173951
H        0.204751934   5.726055518   7.392919431
H       -1.359151959   5.885877177   0.282925462
H        6.557735756  -0.531091353   7.063824005
H        7.243809500   0.042287914  -0.144128291
H        6.007521098   6.591369925   6.851818927
H        6.460551217   3.892814051   0.070818272
H        0.985731148   4.548970622   6.494781583
H       -0.327998898   6.645326901   1.364358632
H       -0.557792161  -0.894452620   4.761016477
H        0.049945255  -1.269393980   0.918944528
H        5.732791403   4.954931361   7.164490094
H        4.783677439   3.950313908   0.172928782
H        5.739601771  -1.587149108   6.059977237
H        6.382723818  -1.168737311  -0.936378030
H       -0.791304970  -0.035707242   1.634443069
H        0.217636124  -1.382774502   6.181122003
H       -0.398134453   4.973392687   1.310258814
H       -0.693718835   4.563482956   6.566241368
H        6.327915335  -1.064170073   0.732786458
H        4.873940236  -0.521339065   7.008646291
H        5.727594009   4.608008673   1.367749714
H        4.479899139   5.951002471   6.709839244
