CRYSTAL
PRIMVEC
11.2820 0 0
0 11.1747 0 
0 0 11.3552
PRIMCOORD
96 1
Pb       2.994139283   2.616518358   2.914854938
Pb       2.903554502   2.929371430   8.448008360
Pb       2.960553608   8.221043206   3.082615238
Pb       2.816294830   8.544924006   8.675449846
Pb       8.531830046   2.645377998   2.856601892
Pb       8.501336425   2.971186837   8.523720894
Pb       8.538097165   8.192515779   3.137362701
Pb       8.517368280   8.598806922   8.832434661
Cl       2.515878152   2.396216938   5.702977359
Cl       3.024877958   2.858699081   0.009557140
Cl       2.825586582   8.729576342   5.845363272
Cl       3.239502460   8.296652668   0.171268568
Cl       8.770127431   2.652575701   5.705627082
Cl       8.768332849   2.929669578   0.015699499
Cl       8.410403671   8.483003380   5.982396905
Cl       8.490723202   8.211209400   0.299067529
Cl       3.301575253  -0.170124052   2.676816774
Cl       2.317277423   0.188154875   8.956366928
Cl       2.583164697   5.399744733   3.335701711
Cl       3.483671550   5.770469709   8.445195496
Cl       8.394816710  -0.169137514   3.169022162
Cl       9.077459184   0.213579726   8.808900717
Cl       9.178631349   5.391298562   3.117905823
Cl       8.080104906   5.796881441   8.494690337
Cl       5.761805450   3.147343472   2.771640098
Cl       5.704976244   2.175439552   8.530524242
Cl       5.730872097   7.515876019   3.251310904
Cl       5.658518063   9.239961124   8.551927876
Cl       0.137220312   2.289572560   2.694519907
Cl       0.068507478   3.514925603   8.593023311
Cl       0.107315794   8.435072078   3.080122737
Cl       0.025123986   8.040792763   8.969473010
C        5.766622080   4.976215789   5.748303111
C        5.990158797   5.447814722  -0.141925984
C        5.551337645   0.128372915   5.367109448
C        6.159992355   0.134407177   0.429992448
C        0.110627818   6.072603314   6.184035065
C        0.430897059   5.693045660   0.441397775
C       -0.147861344  -0.124035221   6.114354638
C        0.021289814  -0.495112063   0.481986095
N       -0.865243152   5.673469873  -0.293120898
N        0.116408956   4.822158745   5.370627191
N        0.047455159   0.791620956  -0.270917486
N        0.608195498  -0.139427220   4.830760968
N        4.750068610   5.520890083   0.680086711
N        5.740281498   6.369990856   6.273402331
N        4.873394024   0.036246839  -0.316447314
N        6.798928701   0.098093499   6.180824386
H        6.656672323   4.851839560   5.122611562
H        6.609671658   6.324214638   0.078571109
H        5.822982106   0.037152597   4.310980654
H        6.805952459   0.855556566  -0.084177100
H        0.205724275   6.926010297   5.502904041
H        1.015795949   4.816997408   0.136785790
H       -1.216166909  -0.129455625   5.880918344
H       -0.025557974  -1.319534852  -0.239109454
H        6.632737557  -0.854434795   0.444870532
H        5.034824057   1.076961757   5.553068056
H        5.702644626   5.444723493  -1.198190248
H        4.865168772   4.815602157   5.146594766
H       -0.859225513  -0.505530474   1.133876257
H        0.118606377   0.779600894   6.672086572
H        0.222930563   5.659576903   1.515546824
H        0.953724867   6.040294804   6.882002911
H        6.525068522   4.526813743   0.114711150
H        5.794613841   4.283097485   6.597895859
H        5.946557881   0.469586516   1.450011729
H        4.913423200  -0.708009154   5.674821297
H        0.961574739   6.616588755   0.182105275
H       -0.831477459   6.126372523   6.740040744
H        0.934513600  -0.564213776   1.083448508
H        0.120662544  -1.016683374   6.690632450
H        0.383689137   0.682821228   4.237872318
H       -0.792236371   0.878320037  -0.869155202
H        0.987650351   4.758749544   4.813895846
H       -1.399356394   4.803237728  -0.097642544
H        7.441104149   0.871094571   5.921502809
H        5.039565084  -0.289645024  -1.285449196
H        5.689417237   7.039064107   5.484743186
H        4.221446455   6.392061301   0.467214156
H       -0.675401261   4.827068075   4.696297767
H       -0.707938484   5.720987358  -1.308685527
H        0.391425358  -0.996006175   4.275386563
H        0.871351232   0.816536535  -0.903772273
H        6.592989801   6.561127373   6.824183066
H        4.972263856   5.522592640   1.685018467
H        7.309640912  -0.799364882   6.054795530
H        4.380095293   0.943662125  -0.352979317
H        0.079544843   1.586638733   0.384355206
H        1.621168381  -0.131443101   5.001315580
H       -1.460314447   6.486058185  -0.033979046
H        0.043152106   3.993271756   5.974927740
H        4.242410758  -0.648958888   0.129424688
H        6.574380695   0.199971053   7.180943790
H        4.140400237   4.702849493   0.487610987
H        4.926106983   6.488298429   6.904290246
