CRYSTAL
PRIMVEC
11.2820 0 0
0 11.1747 0 
0 0 11.3552
PRIMCOORD
96 1
Pb       2.838615302   2.946401164   2.905931939
Pb       2.866934315   2.849627785   8.615480387
Pb       2.889040937   8.618864404   2.832682269
Pb       2.947069673   8.426061297   8.460612786
Pb       8.505578211   2.853888709   2.944993099
Pb       8.479572809   2.733147032   8.647766223
Pb       8.618407125   8.538979610   2.864786241
Pb       8.582125461   8.299887202   8.469913288
Cl       3.105594578   3.382991481   5.720971005
Cl       2.554535832   2.460735827   0.051437799
Cl       2.931083016   7.740184586   5.606727673
Cl       2.532619992   8.897693082  -0.046824459
Cl       8.198281547   3.208237661   5.734549433
Cl       8.496159202   2.024305847   0.060516231
Cl       8.621849399   7.692185574   5.615133515
Cl       8.940195583   8.858844370  -0.035274967
Cl       2.668911765   0.210384162   3.693369793
Cl       3.044038217   0.082577329   7.865737631
Cl       3.438873644   5.810156389   2.534172342
Cl       2.714518922   5.696204718   9.244258825
Cl       8.864135735   0.148170841   3.623044947
Cl       8.144261923  -0.038228893   8.112524608
Cl       7.983779368   5.748510800   2.536603224
Cl       8.741574047   5.586892758   9.363903773
Cl       5.674435812   2.467764027   3.119055521
Cl       5.670456138   2.855180764   8.450159572
Cl       5.775651162   8.860580576   2.387934466
Cl       5.762682172   8.259775883   9.125835952
Cl       0.033615446   3.319836611   3.490380952
Cl       0.026156774   2.175912044   8.554235680
Cl       0.126592010   7.892782954   2.784779076
Cl       0.115198910   8.446717237   8.580723346
C        5.748156292   5.846200760   6.449654353
C        5.660394680   4.752551008  -0.018588356
C        5.770794481  -0.764984265   5.681493705
C        5.144042502   0.455348563  -0.109720201
C       -0.000141694   5.217093663   6.651230580
C        0.089990313   5.156600073   0.653670085
C        0.000927956  -0.709401110   5.817763067
C        0.125333341   0.097168060   1.007669598
N        0.108154591   6.313079056  -0.284475338
N        0.152789175   5.988840094   5.386081524
N        0.075424668  -0.192367455  -0.452980673
N        0.167488140   0.758923592   5.642681052
N        5.708681408   6.202489183   0.315328169
N        5.699042847   5.394439374   5.029007861
N        6.364150522  -0.398080448  -0.150105618
N        5.566875545   0.696755696   5.874805662
H        5.778100925   6.939052206   6.464372811
H        6.513749670   4.515412650  -0.659389371
H        6.727460262  -0.917720277   5.171599406
H        5.179129472   1.149969324  -0.954544009
H       -0.966895778   4.703172293   6.619454058
H        0.132416555   4.229878321   0.070256247
H        0.013982712  -1.181749279   4.829526814
H       -0.691970224   0.779545376   1.255922957
H        5.144628565   1.010551114   0.834167148
H        4.942387357  -1.149229083   5.078551377
H        4.718953326   4.546589051  -0.535823721
H        6.648092036   5.426754762   6.910868155
H        1.095553956   0.543979428   1.239546823
H       -0.956894958  -0.892712369   6.314725091
H       -0.829450903   5.206237568   1.246470706
H        0.043336432   5.913139705   7.495035769
H        5.713567688   4.184223704   0.916925378
H        4.849755630   5.478040122   6.955833987
H        4.260373368  -0.188146189  -0.173959661
H        5.783957813  -1.240366609   6.668933762
H        0.963215768   5.231061700   1.309052930
H        0.816831131   4.491386775   6.703799582
H        0.003213991  -0.851118139   1.542489937
H        0.830573437  -1.073783859   6.428919558
H       -0.591367788   1.139125350   5.059146586
H        0.122991095   0.661403432  -1.037271333
H       -0.638469345   6.647526569   5.269114929
H       -0.728398686   6.285865330  -0.898910770
H        5.540666588   1.208291075   4.971527039
H        7.217213770   0.191563658  -0.110991161
H        6.530031997   5.700184778   4.493507749
H        5.702567736   6.805054703  -0.528765503
H        0.154903906   5.338160020   4.579797684
H        0.954158108   6.283328806  -0.887544849
H        1.062431064   0.947563278   5.158269239
H       -0.795994064  -0.705177159  -0.671734114
H        4.855644498   5.745210891   4.543818036
H        6.557002415   6.399432388   0.873480577
H        6.320988273   1.102551957   6.446835435
H        6.396462228  -0.971650376  -1.006496810
H        0.863870907  -0.816642208  -0.699889588
H        0.162683019   1.247743073   6.560434169
H        0.106732016   7.203625220   0.229983871
H        1.037561326   6.533730869   5.376086234
H        6.364879626  -1.053710123   0.653888418
H        4.676313428   0.860765764   6.376161781
H        4.901345305   6.441227728   0.916555720
H        5.668371978   4.366069153   4.970455600
