CRYSTAL
PRIMVEC
11.2820 0 0
0 11.1747 0 
0 0 11.3552
PRIMCOORD
96 1
Pb       2.869148166   2.731787165   3.090899817
Pb       2.812365917   2.839463315   8.780350771
Pb       3.013257291   8.317454944   3.166832192
Pb       2.860820200   8.448182129   8.956535056
Pb       8.520188348   2.845995840   2.755262835
Pb       8.531454979   2.922432687   8.386848587
Pb       8.619455617   8.404515694   2.783266894
Pb       8.529588447   8.480760828   8.478282226
Cl       2.521164158   3.024202347   5.965286947
Cl       2.850261943   2.872189883   0.247707492
Cl       2.729076511   8.101947607   6.074493448
Cl       2.982746881   8.342918576   0.365189108
Cl       8.135238386   2.621673153   5.584441216
Cl       8.469431990   3.070722710  -0.114435238
Cl       8.603782027   8.914656952   5.638413684
Cl       8.604439646   8.331288447  -0.072496588
Cl       2.960820274  -0.060589258   3.711611588
Cl       3.452161118   0.078100518   8.959309179
Cl       3.252394722   5.495513023   3.491216364
Cl       2.221028476   5.643914224   8.905390153
Cl       8.842651339   0.044585563   2.445100800
Cl       8.037165372   0.151219523   8.905051643
Cl       8.210625095   5.625640388   2.628845023
Cl       9.416668124   5.704208604   8.433975955
Cl       5.707152057   2.293369437   2.647436497
Cl       5.705554846   3.517418310   8.720471907
Cl       5.818965328   8.626801783   3.131648982
Cl       5.676399561   7.780558829   8.678117125
Cl       0.078249529   2.987116610   2.687784501
Cl       0.020445551   2.318110651   8.890795408
Cl       0.160585068   8.329594242   3.167654033
Cl       0.033746796   9.192839986   8.611607527
C        6.275412390   5.827385742   5.670288665
C        5.279478266   5.611414055   0.700703610
C        5.362117354  -0.096504607   6.230799168
C        5.742439962  -0.505722592   0.347027815
C       -0.567805894   5.569474216   5.145233613
C        0.123679539   5.928434859   0.650776221
C       -0.368293684   0.520955781   5.577007554
C        0.634615915  -0.102724123   0.463622587
N        0.070136947   4.686958747  -0.172795675
N        0.534503631   5.635760549   6.147067416
N       -0.666871554   0.033131112  -0.250946974
N        0.439798428  -0.728979460   5.621893043
N        6.410402424   5.743902595  -0.264743593
N        4.941765340   5.551609217   6.279036861
N        5.717082561   0.854968850  -0.259634134
N        6.290508296   0.009944112   5.068643629
H        6.986822248   6.039741918   6.476788415
H        4.344907457   5.529703995   0.135832121
H        4.654041185   0.738186097   6.192519428
H        5.826086622  -1.244655713  -0.457537861
H       -0.131391844   5.508266432   4.144590230
H       -0.657560190   6.613327308   0.302313593
H       -0.355330713   0.910451192   4.552825539
H        1.442689971  -0.096013883  -0.276699855
H        4.812673653  -0.658444789   0.903334292
H        5.953204963  -0.058781433   7.152123303
H        5.267969056   6.499896140   1.339758999
H        6.183987427   6.688862822   4.999336599
H        0.630768416  -1.046585191   1.019814314
H        0.074132950   1.248237609   6.266787564
H        1.111608386   6.386068831   0.526891685
H       -1.181325482   6.471778387   5.241873210
H        5.442877705   4.714959745   1.308026362
H        6.593362420   4.943097578   5.109108489
H        6.603255916  -0.570134870   1.018731641
H        4.816521879  -1.044174236   6.159196654
H       -0.047490395   5.655320340   1.695893293
H       -1.172191045   4.678637673   5.352117554
H        0.737394314   0.743955806   1.151231518
H       -1.392782225   0.279412876   5.875508606
H        1.414483397  -0.546634296   5.322612611
H       -0.804963791  -0.755849362  -0.901334525
H        1.144883264   6.466669084   6.016296367
H        0.231476980   4.905712144  -1.166340112
H        6.830359105   0.895479871   5.111639381
H        4.908742227   0.924899982  -0.902567461
H        4.600100123   6.379544758   6.787606354
H        6.271546161   6.556866234  -0.895294780
H        1.150306120   4.799119542   6.093218019
H       -0.844266059   4.205907073  -0.094995102
H        0.075776926  -1.440088236   4.959733542
H       -0.682429876   0.891322899  -0.828838397
H        5.008401345   4.774340322   6.960477825
H        6.471286487   4.907858182  -0.867905051
H        5.774663610  -0.017861411   4.179348059
H        6.572082403   1.010887501  -0.817089265
H       -1.447870569   0.053245979   0.430765869
H        0.435200569  -1.146039916   6.571658128
H        0.807778053   4.019903157   0.116275647
H        0.143410151   5.682708959   7.102509954
H        5.645980755   1.572347475   0.484359392
H        6.969511848  -0.774108129   5.075841021
H        7.299938510   5.857110759   0.242293834
H        4.248139753   5.326716121   5.540202319
