CRYSTAL
PRIMVEC
11.2820 0 0
0 11.1747 0 
0 0 11.3552
PRIMCOORD
96 1
Pb       2.759720886   2.753931200   2.967334738
Pb       2.813042120   2.878672515   8.661196088
Pb       2.831737972   8.401122810   3.224757183
Pb       2.855436689   8.545273444   8.718810107
Pb       8.420104952   2.702414952   2.723041678
Pb       8.648445326   2.817467342   8.528905285
Pb       8.484020484   8.274725159   2.938657254
Pb       8.641340251   8.396735001   8.685761439
Cl       3.043578130   2.959297753   5.789819054
Cl       2.761966368   2.960084007   0.140354317
Cl       2.020738036   8.428873276   5.976210069
Cl       3.233005285   8.675755580   0.328294448
Cl       8.317814622   2.135551514   5.622037206
Cl       8.350789084   3.426421900  -0.063374261
Cl       8.995310947   8.852447216   5.759570986
Cl       7.933725773   8.085842214   0.108818709
Cl       2.093898418  -0.034911155   2.996405482
Cl       2.468577938   0.107077126   9.033570434
Cl       3.207943259   5.590546375   2.881954630
Cl       3.120589791   5.721923300   8.937109358
Cl       8.886764025  -0.147820526   2.370348085
Cl       8.626100476  -0.020801348   8.928979872
Cl       8.233229565   5.448161126   3.594374098
Cl       8.344027485   5.599035220   7.817463195
Cl       5.591083333   2.078626805   2.940282626
Cl       5.754385746   2.952908696   8.515872973
Cl       5.723941923   8.905417164   3.474754293
Cl       5.779539606   8.578384584   8.405391212
Cl      -0.096238664   3.032735930   3.223113831
Cl       0.082147168   3.417273826   8.632963444
Cl       0.057336358   7.970524162   2.610083491
Cl       0.114371776   8.190520071   9.504210522
C        5.263208646   5.828734474   5.808488069
C        5.412802120   5.503846964   0.318523248
C        4.914270394   0.104102961   6.112061744
C        5.727945135   0.518380697  -0.366430003
C        0.702080502   5.253000845   5.775430292
C       -0.086419762   5.215316339   0.313161852
C        0.263176991   0.483889136   6.365517214
C       -0.143068166   0.850290199   0.023094608
N        1.231330776   5.910362299   0.273798395
N       -0.520992568   6.095109395   5.639741893
N        0.310080680  -0.546671690   0.282398352
N       -0.388253737   0.166572026   5.065045521
N        6.087776884   5.624674757  -1.006267127
N        5.911289313   4.495787246   5.647749496
N        5.800477672  -0.524685819   0.699301993
N        6.309044485  -0.406112326   6.008933278
H        5.314170914   6.357633159   4.850550876
H        4.345400445   5.350357385   0.145899438
H        4.701792944   0.713096245   5.228050996
H        5.698731698   0.015540165  -1.338639906
H        1.342514155   5.426074210   4.904581301
H       -0.672403788   5.541647743  -0.551377569
H       -0.501741431   0.473683056   7.150585452
H        0.385228182   1.228487782  -0.856588889
H        6.615427945   1.156683172  -0.296579408
H        4.826954221   0.712717060   7.017504985
H        5.587450145   6.424370653   0.884273317
H        5.808332427   6.383808173   6.580031347
H        0.094459248   1.457332946   0.903920686
H        0.729159276   1.472375056   6.291637228
H       -0.589301570   5.480008464   1.248881703
H        0.398402051   4.205072289   5.816640015
H        5.835804463   4.638099092   0.839566163
H        4.221840411   5.672058933   6.109222287
H        4.820939689   1.113223944  -0.208784320
H        4.230429260  -0.752120841   6.158435773
H        0.091764809   4.138243432   0.260681573
H        1.222143057   5.537115145   6.695988437
H       -1.222890436   0.832743710  -0.150596235
H        1.021586183  -0.277579429   6.569501118
H       -1.075865651   0.895815651   4.825899876
H        1.322347668  -0.587987609   0.465742633
H       -1.065826580   5.847863836   4.794966460
H        1.103049243   6.929949696   0.294070518
H        6.995942105   0.370223457   5.923639330
H        6.627451684  -1.134186677   0.580413057
H        6.875149678   4.605769938   5.293152769
H        5.763231017   6.453767772  -1.525600986
H       -0.276989013   7.093477708   5.580501492
H        1.758299839   5.683731708  -0.590798538
H       -0.907477083  -0.729356055   5.133034646
H        0.126255090  -1.180990655  -0.519561285
H        5.393583659   3.900785495   4.985989329
H        5.909099601   4.787391294  -1.597490184
H        6.390204964  -1.018683887   5.174852938
H        4.964804550  -1.144270671   0.669420343
H       -0.162686650  -0.936312235   1.111215681
H        0.312714208   0.105928339   4.302016973
H        1.827231050   5.657900668   1.085106805
H       -1.170897380   5.967532220   6.440166523
H        5.850506359  -0.089986992   1.633058402
H        6.542066637  -0.977796866   6.834931677
H        7.104486808   5.703052305  -0.883850509
H        5.936997124   3.984410134   6.552259538
