CRYSTAL
PRIMVEC
11.2820 0 0
0 11.1747 0 
0 0 11.3552
PRIMCOORD
96 1
Pb       3.010695153   2.693481989   2.777073102
Pb       2.954427163   2.841676824   8.410871484
Pb       2.884612709   8.325492416   3.087098588
Pb       2.770649549   8.359516791   8.798105271
Pb       8.628221973   2.725385521   2.858711282
Pb       8.514273599   2.931261069   8.532338122
Pb       8.572414999   8.436919280   3.215564526
Pb       8.412260696   8.541481323   8.886385806
Cl       2.681237180   2.445580790   5.605263938
Cl       2.990909263   2.556226348  -0.097220803
Cl       2.782964865   8.553646298   5.961128320
Cl       3.505308370   8.151501768   0.284738493
Cl       9.009642515   2.488080552   5.730706755
Cl       8.762271923   3.423715081   0.040160466
Cl       8.897132619   8.887029928   6.115330559
Cl       8.166887241   7.890905633   0.417193017
Cl       3.435627419  -0.076417252   2.782335573
Cl       2.268446458   0.040596574   8.644143019
Cl       2.829672715   5.502230204   3.329693279
Cl       3.373139273   5.651982823   8.314451758
Cl       8.703713867  -0.043310682   2.420371651
Cl       9.054868506   0.191255275   9.129449845
Cl       8.757581193   5.552497837   3.408834561
Cl       8.041942469   5.788082133   8.271661601
Cl       5.812061107   3.008451785   2.720503655
Cl       5.704405725   2.010637050   8.425962708
Cl       5.710195636   8.064921504   3.545034191
Cl       5.564831760   9.050903048   8.425495034
Cl       0.169182814   2.654674272   2.639600677
Cl       0.086141047   3.178544622   8.423820474
Cl       0.059736332   8.070302769   2.715016605
Cl      -0.070279545   7.972840101   9.151945363
C        5.743680854   4.871808270   5.689138995
C        5.534895375   5.336186874  -0.305584728
C        6.074630149   0.099731684   5.255651743
C        6.144254857   0.102643562   0.318249669
C        0.098191559   6.028043134   6.213472502
C        0.831790313   5.328885312   0.112670256
C        0.222372810  -0.224507139   5.027491615
C        0.475635053  -0.365822992   0.372966012
N       -0.497325806   5.978887111   0.277405380
N        0.121231993   4.951692947   5.177591595
N        0.043663719   0.959310557  -0.154341418
N       -0.200531884   0.079567302   6.424329156
N        5.892015866   5.775595738   1.072276947
N        5.694238861   6.272096606   6.194139527
N        4.855285496  -0.109200125  -0.401170822
N        4.777240101  -0.023992499   5.980538848
H        6.666993443   4.743021174   5.113935866
H        5.473177275   6.219828517  -0.947794891
H        6.749576352  -0.685769558   5.614658334
H        5.919353245   0.386518598   1.350487452
H        0.142639601   6.995565396   5.702370873
H        1.607600525   6.102360552   0.156961440
H        0.520445355  -1.276142970   4.980201261
H        0.536747244  -1.069371043  -0.464690206
H        6.700983625   0.898900495  -0.187827770
H        6.500764844   1.084981708   5.476916456
H        4.569102145   4.821610737  -0.274536349
H        4.871080927   4.699702202   5.050837129
H       -0.268496954  -0.705696730   1.100570568
H        1.059892306   0.427115788   4.760274426
H        0.847830628   4.819897782  -0.857537267
H        0.963581738   5.900368446   6.872112448
H        6.319017748   4.659026108  -0.660382288
H        5.730648639   4.190629239   6.548935577
H        6.716567553  -0.831655914   0.298374321
H        5.886172520  -0.012271453   4.183463268
H        0.967919679   4.606730936   0.923065453
H       -0.831482037   5.943845532   6.786743820
H        1.451686875  -0.249320414   0.858378872
H       -0.628822125  -0.039891801   4.362191165
H        0.586163743   0.035051839   7.098019551
H       -0.840692191   0.861555669  -0.692092312
H        0.983596595   5.003923788   4.603443148
H       -0.645619658   6.659857254  -0.490398056
H        4.931427893   0.094161925   6.992546126
H        4.255079909   0.736387835  -0.355735836
H        5.704466592   6.951545096   5.406682103
H        5.182033326   6.415415807   1.451276205
H       -0.696495529   5.053566551   4.541157597
H       -0.544140911   6.510372407   1.165034202
H       -0.930675768  -0.596935157   6.711166785
H        0.748606454   1.347629679  -0.794554349
H        6.505396949   6.435505789   6.819841203
H        6.784131747   6.309172113   1.052219532
H        4.321244300  -0.944995628   5.841839858
H        4.336788085  -0.907033086   0.010267387
H       -0.085682618   1.634016794   0.621327194
H       -0.630181792   1.019444316   6.475568825
H       -1.260592132   5.275702337   0.256727882
H        0.066719936   4.021434483   5.612231430
H        5.027408588  -0.340333570  -1.392125072
H        4.103660241   0.708403279   5.686924263
H        5.975572858   4.961363886   1.712954382
H        4.838445042   6.413072219   6.757043527
