CRYSTAL
PRIMVEC
11.2820 0 0
0 11.1747 0 
0 0 11.3552
PRIMCOORD
96 1
Pb       3.083514294   2.877322841   3.022990816
Pb       2.884454793   2.741198735   8.655642348
Pb       3.013159147   8.411565382   3.093350387
Pb       2.866104142   8.338549042   8.621706264
Pb       8.744163009   2.687361756   2.838116323
Pb       8.515395328   2.581884091   8.609101038
Pb       8.612687423   8.308940762   2.943359976
Pb       8.518254744   8.167802685   8.579428861
Cl       2.663706830   2.931442759   5.801527743
Cl       2.810635134   2.937201087   0.154947526
Cl       2.638912775   9.016100775   5.867476785
Cl       2.973690298   8.234826743   0.203217616
Cl       8.499252364   2.362723980   5.712199067
Cl       8.625486564   2.862731767   0.049790276
Cl       7.842388418   8.380939034   5.747327254
Cl       8.648283563   8.123804338   0.104401416
Cl       3.729723217   0.019154978   2.884812231
Cl       3.210175557  -0.100624506   9.254022210
Cl       2.276642067   5.614639565   3.009187331
Cl       2.495449131   5.503803093   8.571990650
Cl       8.071944552  -0.123687968   2.639836096
Cl       8.050686845  -0.244544021   8.889441682
Cl       9.461922440   5.462329397   3.117124341
Cl       8.950950377   5.345594711   7.988112069
Cl       5.920184972   3.289035055   3.358458100
Cl       5.703067768   3.401075771   8.591109283
Cl       5.850281114   8.001667955   2.578203655
Cl       5.746622639   7.834430706   9.006418528
Cl       0.296303312   1.997545871   3.006387236
Cl       0.072524512   2.295619172   8.275827693
Cl       0.267111776   8.990083421   2.691789200
Cl       0.122160235   8.546320670   9.033260916
C        5.072320450   6.033053216   5.746842576
C        6.062097493   5.341494176   0.327206403
C        5.333121264   0.341959425   6.381158965
C        5.750175047   0.624393197   0.023423223
C        0.150639042   6.392175689   5.910425304
C       -0.084831870   5.358138313  -0.332800347
C       -0.651151736  -0.627809778   5.918056602
C       -0.356207846   0.224573806  -0.046075765
N        0.148768902   6.561989308   0.512406556
N       -0.036883456   4.923331754   5.735854549
N        1.039396489  -0.054697844   0.403260162
N        0.503734753   0.300886974   5.752812296
N        4.719033890   5.527378213  -0.288389385
N        6.276955938   5.177639032   5.952809290
N        5.914384008  -0.857303849   0.063567857
N        6.195186091   0.054330518   5.199358270
H        5.191504705   6.565619577   4.796448489
H        6.499503822   4.422308348  -0.074133662
H        4.511686986  -0.381560860   6.400367545
H        5.836742320   0.948825053  -1.017810934
H       -0.822323721   6.874653881   5.759544659
H       -0.108158526   5.670318025  -1.381683505
H       -0.611879887  -1.364836883   5.109902884
H       -0.656437187  -0.554699713  -0.753896893
H        6.544146797   1.070540098   0.628678112
H        4.939422111   1.359389001   6.279442768
H        5.946260563   5.268402709   1.412894240
H        5.013024585   6.743714179   6.578044742
H       -0.377377007   1.206639860  -0.526648481
H       -1.575870802  -0.044436600   5.870648890
H       -1.043001019   4.915886007  -0.041662191
H        0.871367957   6.739414304   5.164494866
H        6.683262083   6.206072167   0.070018027
H        4.188371456   5.385001637   5.725868041
H        4.763968663   0.876164871   0.421868040
H        5.944302201   0.253021321   7.286183810
H        0.730112044   4.645357924  -0.165260242
H        0.512605343   6.581375971   6.925435045
H       -1.007035568   0.214512498   0.834778852
H       -0.555416748  -1.121342196   6.892140877
H        0.456597551   0.813537285   4.847653135
H        1.698907586  -0.139816667  -0.393736667
H       -0.463684051   4.753205897   4.806702884
H       -0.630147172   7.236840161   0.385976674
H        5.645269133   0.066921864   4.323003700
H        6.829655990  -1.131581464  -0.324261591
H        7.130005775   5.747637953   6.033741241
H        4.086296759   4.731601005  -0.077243772
H       -0.687306182   4.573474626   6.459978022
H        1.031852845   7.047443778   0.277126207
H        1.385819444  -0.240090863   5.778950514
H        1.056374196  -0.925308795   0.962704425
H        6.382053286   4.510612018   5.161271972
H        4.798112137   5.588662929  -1.312535428
H        6.654570462  -0.872327706   5.284836491
H        5.192690980  -1.327591774  -0.500817184
H        1.369696897   0.701420720   1.017454818
H        0.509465410   1.005451408   6.517120240
H        0.192228686   6.311844806   1.510047880
H        0.853989345   4.398926888   5.804062616
H        5.858002070  -1.230938953   1.025376077
H        6.947557606   0.763926574   5.123282563
H        4.261510704   6.402469212   0.026692174
H        6.187442834   4.622000080   6.828870825
