CRYSTAL
PRIMVEC
11.2820 0 0
0 11.1747 0 
0 0 11.3552
PRIMCOORD
96 1
Pb       2.795245566   2.578258789   2.971545797
Pb       3.075209072   2.851354628   8.693883700
Pb       2.728124760   8.200846197   2.854895719
Pb       2.928156534   8.537799076   8.566390306
Pb       8.528988885   2.726839375   2.958105653
Pb       8.719050044   2.957834580   8.662805909
Pb       8.384934387   8.299538885   3.009818907
Pb       8.608277583   8.549276930   8.636169751
Cl       3.097566138   2.860036209   5.851653560
Cl       2.738297958   3.037767918   0.187547207
Cl       2.496581276   8.550321254   5.699455791
Cl       2.905611272   8.073245585   0.005519345
Cl       8.526565356   2.815910314   5.807228108
Cl       8.763131851   2.797725872   0.127689853
Cl       8.385057564   9.116449746   5.831737811
Cl       8.410135266   8.497647897   0.161492219
Cl       3.245999684  -0.213571269   2.549720177
Cl       2.757869541   0.102668752   8.932915247
Cl       2.203428709   5.372152864   3.114324828
Cl       3.608721677   5.701820236   8.486416687
Cl       7.841354727  -0.073749380   2.778149840
Cl       8.987042779   0.142107563   8.928619339
Cl       8.630792230   5.510297471   3.005786029
Cl       7.860271100   5.724365666   8.571206535
Cl       5.677015695   2.897453972   3.291367284
Cl       5.914540441   2.412036292   8.377141203
Cl       5.579919711   7.918869524   2.509841944
Cl       5.768440374   8.901344448   8.936243773
Cl       0.017550201   1.781005574   3.179230195
Cl       0.286869487   3.609243959   8.458235037
Cl      -0.076284641   8.793496017   2.791314867
Cl       0.140785068   7.835665574   8.575278185
C        5.745645870   5.981086295   5.343245286
C        5.773312321   4.984871544   0.431646839
C        5.099982997  -0.449180154   5.670200621
C        5.741801328   0.728341823   0.004007697
C       -0.400685396   5.851954426   5.552201576
C       -0.321095940   5.815811991   0.448603753
C        0.222991755   0.459930602   6.491825812
C        0.371041280  -0.134711998  -0.101064877
N        0.903921303   5.609007244  -0.373819047
N        0.973301481   5.638457442   6.085295792
N       -0.935986553  -0.045644056   0.606621718
N       -0.037204401  -0.537185896   5.416488823
N        5.761642970   6.237170695  -0.376267509
N        5.822075715   4.717445671   6.125595060
N        5.587032276  -0.693869074   0.408009211
N        6.171462814   0.587491223   5.653309608
H        5.778478161   5.734782329   4.278016429
H        5.814423386   4.128248216  -0.250783100
H        5.107622293  -0.972170140   4.707881015
H        6.649720600   0.825056184  -0.599917592
H       -0.332079934   6.476401723   4.654518430
H       -0.849039229   6.699773775   0.075810878
H       -0.553623214   1.230357327   6.442797892
H        0.927331469  -0.991099384   0.294964124
H        5.812813186   1.339584014   0.911104254
H        4.137892548   0.051532380   5.820930412
H        4.860583673   4.946994946   1.034806193
H        6.599660026   6.612870747   5.616075896
H        0.931754208   0.790435705   0.074465995
H        1.206507459   0.909865644   6.319377762
H       -0.020739484   5.965474632   1.490479708
H       -0.997939183   6.345462374   6.327154544
H        6.654808902   5.001637296   1.081961472
H        4.807260698   6.490044228   5.594897456
H        4.864323873   1.009532808  -0.585871006
H        5.306997097  -1.141290981   6.493685613
H       -0.957431531   4.928219797   0.364350555
H       -0.837455472   4.879990682   5.300574663
H        0.175699826  -0.261583303  -1.169359498
H        0.198620395  -0.045098099   7.461668239
H       -0.040319149  -0.062211417   4.494984063
H       -0.788546505   0.079757942   1.618133194
H        1.396265629   6.537286729   6.362163973
H        1.525416483   6.439881635  -0.331416513
H        6.035904744   1.258162744   4.871977813
H        6.382561742  -0.991108215   0.990638806
H        6.678591524   4.176819094   5.901970289
H        4.928091598   6.285311984  -0.986064224
H        1.576728788   5.230315768   5.350399204
H        0.663101888   5.432810506  -1.360180896
H       -0.954877282  -1.009267204   5.540878545
H       -1.509201157  -0.897421460   0.465500290
H        5.005435658   4.105845027   5.935702141
H        6.582374685   6.278956077  -1.009337847
H        7.093302573   0.145194741   5.530494908
H        5.545832082  -1.307267423  -0.428693766
H       -1.488201802   0.765679303   0.272751987
H        0.695673824  -1.269687593   5.399468244
H        1.452420034   4.788044455  -0.047307043
H        0.944288420   5.003880380   6.906923289
H        4.732439140  -0.809677198   0.982584927
H        6.181722275   1.132439333   6.538093169
H        5.763214485   7.056704370   0.250834971
H        5.841026335   4.907557806   7.137043622
