CRYSTAL
PRIMVEC
11.2820 0 0
0 11.1747 0 
0 0 11.3552
PRIMCOORD
96 1
Pb       2.760013458   2.816375653   3.152604305
Pb       3.014662238   2.844954443   8.830160116
Pb       2.770800382   8.420742031   3.092619772
Pb       3.050355460   8.405075840   8.627117450
Pb       8.385234265   2.831831315   2.808448889
Pb       8.672393004   2.845437368   8.548093503
Pb       8.409425993   8.390354265   2.753241479
Pb       8.665453402   8.393471209   8.389376581
Cl       3.100407632   2.210319720   5.964562222
Cl       3.141508944   3.130209446   0.310825397
Cl       3.020171457   9.217655451   5.854753141
Cl       2.889412885   7.955587254   0.187477135
Cl       8.530576042   2.971832040   5.669729203
Cl       8.535108804   2.763170407   0.004896822
Cl       8.603945069   8.288205115   5.579478120
Cl       8.742217958   8.129116060  -0.079136213
Cl       2.378899801   0.048946406   2.448563715
Cl       3.247533060   0.014973841   9.254827078
Cl       3.399459330   5.615494046   3.491435261
Cl       2.740670551   5.607050748   8.476629055
Cl       8.907865469   0.036743575   2.655199335
Cl       8.561497204   0.042145814   8.250890862
Cl       7.615059581   5.611309192   2.985791061
Cl       9.248748130   5.613578140   8.323729946
Cl       5.568969929   2.414941944   2.849364824
Cl       5.832680191   2.852348182   8.388772000
Cl       5.548619291   8.783061355   2.541728266
Cl       5.848287264   8.362085704   8.488105457
Cl      -0.060262661   3.229966117   3.034874920
Cl       0.205698865   2.410283255   8.918450973
Cl      -0.047417650   7.799261160   2.885726053
Cl       0.231700650   8.637910851   8.357302368
C        5.756581713   5.787398046   6.260643417
C        5.980638525   5.578614235  -0.503431983
C        6.245109546  -0.115144982   5.488978279
C        6.332861226  -0.009190204  -0.268598008
C        0.516432287   5.572688539   6.008509565
C        0.025230409   5.222043253   0.238067589
C       -0.315549221   0.101795690   5.394164575
C       -0.073926995  -0.456871635  -0.317119991
N        0.144834439   6.449185679  -0.594869474
N       -0.715273699   5.623194881   5.171507650
N       -0.061347628   0.765023016   0.535417515
N        0.530935435   0.123658917   6.623064385
N        5.198715137   5.652869948   0.763755391
N        5.698519535   4.496431078   5.516719260
N        5.106881172   0.076921971   0.575402967
N        5.547621571  -0.037565488   6.803170246
H        6.557122713   6.400336917   5.830109496
H        6.576414302   4.658809451  -0.489555990
H        7.324230039  -0.099227166   5.668905228
H        6.297392607  -0.945565416  -0.836555274
H        0.573140583   6.493033702   6.598964957
H       -0.901292950   4.702700213  -0.029912660
H        0.024581000  -0.717328621   4.750581956
H        0.832372720  -0.462450016  -0.930443353
H        7.210956964   0.009591595   0.386345685
H        5.940015010   0.742422205   4.879947940
H        6.636705001   6.453931657  -0.562914665
H        5.960805825   5.570955932   7.313391573
H       -0.964574062  -0.430792718  -0.953850897
H       -0.216502478   1.060578555   4.872799754
H        0.001151449   5.525637783   1.289302879
H        1.385571423   5.484833426   5.346050354
H        5.276323803   5.567677514  -1.343524919
H        4.790478792   6.292342381   6.155888678
H        6.352752535   0.847613511  -0.950159906
H        5.951346432  -1.048581070   4.996567450
H        0.894241422   4.581530535   0.051762117
H        0.450712442   4.710611807   6.680512733
H       -0.102446195  -1.331971512   0.341625432
H       -1.354571631  -0.063024335   5.695561716
H        1.522030728   0.264700635   6.383181859
H       -0.091153387   1.612463923  -0.046880253
H       -0.671393770   6.426712687   4.514222984
H       -0.672864374   7.074085978  -0.430260877
H        5.781661747   0.830756541   7.317681748
H        5.065266999  -0.732708007   1.227764886
H        6.607155071   3.989851988   5.577450240
H        5.828997508   5.685410130   1.587270737
H       -1.550056815   5.721004264   5.765003314
H        0.160058633   6.225804687  -1.597482453
H        0.453930943  -0.774617860   7.143717367
H        0.789147172   0.765776135   1.132604678
H        5.489273710   4.667109109   4.523144650
H        4.575904432   4.829700288   0.851821940
H        5.786551384  -0.849276958   7.403980197
H        4.262192260   0.075929797  -0.019885581
H       -0.881906133   0.759148371   1.171149523
H        0.259334089   0.880797122   7.278304568
H        1.014742540   6.968995099  -0.361338535
H       -0.797686701   4.761929487   4.605882972
H        5.104167231   0.933386520   1.156226244
H        4.527817699  -0.055541888   6.667068082
H        4.591178556   6.491069004   0.775567450
H        4.967377406   3.871316292   5.888920667
