CRYSTAL
PRIMVEC
11.2820 0 0
0 11.1747 0 
0 0 11.3552
PRIMCOORD
96 1
Pb       2.694531442   2.836741700   3.103690781
Pb       2.955300685   2.862881446   8.748817150
Pb       2.878040118   8.493869075   3.090038219
Pb       3.031587777   8.472748547   8.699964750
Pb       8.299358141   2.685541118   2.748946277
Pb       8.527707677   2.781701303   8.541435046
Pb       8.616609073   8.373433093   2.846250282
Pb       8.601068131   8.379207040   8.580068807
Cl       2.879150644   2.869997339   5.902855214
Cl       2.865683051   3.188716844   0.265931138
Cl       2.891080855   8.442736244   5.857900207
Cl       3.102600287   8.298031651   0.219955535
Cl       8.333582064   2.853657738   5.625412192
Cl       8.828058151   2.298311032  -0.013652002
Cl       8.890309504   8.019136908   5.703257304
Cl       8.711264595   9.056881028   0.049517622
Cl       3.648385770   0.094727168   2.992413708
Cl       2.742773916   0.079355188   8.796272001
Cl       2.061119972   5.667622088   3.032981422
Cl       2.786210294   5.667331076   8.476370407
Cl       7.725300134  -0.089155921   3.265855078
Cl       8.794022463  -0.012341782   7.988550609
Cl       8.838236896   5.505615415   2.545596259
Cl       8.398308347   5.570133428   8.727822745
Cl       5.487977098   3.499185523   3.137179015
Cl       5.757926013   2.625537731   8.505479685
Cl       5.738708194   7.808850360   2.995779346
Cl       5.833229400   8.659487598   8.927742732
Cl      -0.188562510   2.366200830   3.107715056
Cl       0.113904931   2.908048573   8.850433604
Cl       0.075146670   9.019150174   3.165564543
Cl       0.168364671   8.400670515   8.624240597
C        5.531361249   5.724994049   6.277023412
C        5.998941706   5.493693446  -0.278086639
C        5.638757581  -0.242528572   6.283240191
C        5.534126136   0.350016145  -0.144589267
C       -0.340491933   5.041876925   5.897801037
C       -0.005458642   5.912239526  -0.242234906
C        0.562050401   0.126844223   6.121749383
C        0.573163097   0.000772757   0.244798809
N       -0.031374343   4.604947474   0.478074749
N        0.686992855   6.120259875   5.971111203
N       -0.185277358   0.015118527  -1.036257625
N       -0.703698102   0.060808253   5.337266756
N        4.978476207   5.632111699   0.800278455
N        6.735480734   5.654549806   5.397329047
N        5.716385356  -0.939855265   0.581172286
N        5.572274875   1.034475988   5.516691082
H        5.027137305   6.683213843   6.106785667
H        6.985520751   5.405115525   0.192134452
H        6.481697568  -0.828496464   5.900287759
H        5.386445441   0.131191794  -1.206646219
H       -0.931165200   5.186086818   4.986167518
H        0.219804829   5.723509460  -1.296440525
H        0.631436110  -0.768708032   6.747665671
H        0.383741623  -0.951042628   0.751469856
H        6.435071072   0.958650448  -0.006151124
H        4.698144747  -0.784174627   6.136267163
H        5.963352941   6.383980291  -0.916625883
H        5.859568650   5.640922699   7.318333409
H        0.220024890   0.830058162   0.868173000
H        0.543500239   1.025555972   6.747437575
H        0.775512445   6.538324309   0.205354244
H       -0.979563670   5.108847147   6.784955582
H        5.777141457   4.597667305  -0.869785641
H        4.860944426   4.896066802   6.022255026
H        4.655705498   0.861490131   0.265057430
H        5.787629650  -0.006943827   7.340307140
H       -0.986179228   6.389497213  -0.138728700
H        0.176832526   4.077086611   5.867512604
H        1.638158819   0.110250101   0.016239441
H        1.407674680   0.166343205   5.426488407
H       -1.513998962   0.010736181   5.982109104
H       -1.194744044  -0.063851190  -0.858965181
H        0.249801596   7.044737754   6.078588892
H        0.890269320   4.127240114   0.403565156
H        5.409485567   0.841568095   4.517003667
H        6.586266582  -1.413876061   0.269909811
H        7.412379574   6.417917451   5.604232229
H        5.181802252   6.454148765   1.405568475
H        1.256693669   6.128538188   5.103482824
H       -0.747172397   3.965344339   0.092865940
H       -0.690544259  -0.770600520   4.718563687
H        0.080088949  -0.782110713  -1.645055498
H        6.470388482   5.744651250   4.407514054
H        4.983549138   4.804488118   1.425859144
H        6.449340677   1.578063740   5.606371975
H        4.914460281  -1.579864677   0.415226732
H       -0.025631407   0.896555538  -1.563338110
H       -0.793950283   0.889428111   4.724406401
H       -0.247606992   4.741527998   1.475325330
H        1.334203207   5.986025148   6.774835102
H        5.792111635  -0.783014230   1.596008702
H        4.790012000   1.633272649   5.839747385
H        4.033148012   5.745120197   0.418699947
H        7.233408604   4.749744289   5.507895649
