CRYSTAL
PRIMVEC
11.2820 0 0
0 11.1747 0 
0 0 11.3552
PRIMCOORD
96 1
Pb       2.801724004   2.737914060   2.809203126
Pb       3.015642667   2.794970793   8.595618460
Pb       2.788512809   8.294383297   2.996714756
Pb       3.037245374   8.383825206   8.726572856
Pb       8.307881197   2.728093392   2.903932124
Pb       8.642553221   2.814962383   8.609390399
Pb       8.411486830   8.332373401   3.046506208
Pb       8.723596187   8.432111643   8.671767527
Cl       2.768346975   2.541806537   5.717850882
Cl       3.459960023   2.989972938   0.060648359
Cl       2.548671412   8.445004249   5.869335052
Cl       3.606648548   8.370572802   0.191282722
Cl       8.697720244   3.151308902   5.730624916
Cl       8.472848057   2.659914592   0.070592100
Cl       8.956489856   7.853212641   5.837238240
Cl       8.303483043   8.619639093   0.152926734
Cl       2.109889757  -0.083333538   2.944816235
Cl       3.401458707  -0.009608914   8.691965459
Cl       3.143963721   5.514197038   2.934423333
Cl       2.992336162   5.588939477   8.357108711
Cl       9.093316435  -0.053107656   3.080840753
Cl       8.392295613   0.033297770   8.553498971
Cl       7.822212270   5.548418478   2.617897249
Cl       9.083044956   5.624533966   8.910294906
Cl       5.543866737   2.181162025   3.269303876
Cl       5.818120340   3.015254013   8.200235427
Cl       5.584569556   8.845121587   3.336334829
Cl       5.879399853   8.230483284   8.253807489
Cl      -0.090496579   3.122328866   2.672951875
Cl       0.177641563   2.728866695   8.360745407
Cl      -0.062199859   7.860364195   2.458386354
Cl       0.237786157   8.632283089   9.230042063
C        5.398048554   5.559613504   5.347106422
C        6.137872808   5.583702219  -0.622301718
C        5.979750854  -0.007076768   6.104516686
C        5.856674607   0.210082115   0.589618443
C        0.255272010   5.324595724   5.449919382
C        0.622226913   5.354107057  -0.210029378
C       -0.150293468  -0.173492402   6.151133152
C        0.124387556   0.523485438  -0.335083655
N       -0.680624296   5.425638795   0.509656781
N        0.267329812   6.060941109   6.747463449
N       -0.083052051  -0.598393525   0.625170223
N       -0.076941598   1.091270199   5.368047691
N        5.290808726   5.627608109   0.599737487
N        6.418299505   5.612718088   6.435446943
N        5.928928920  -0.492839441  -0.723079705
N        4.645252225  -0.094250689   5.444379649
H        5.520279251   6.437226859   4.703592055
H        6.795980362   6.458425385  -0.617359023
H        5.826942979   0.150269549   7.174544885
H        5.768908972   1.284887895   0.408369994
H        1.132590697   5.626046489   4.866826993
H        1.423581570   5.282638135   0.534568592
H       -1.088263222  -0.684147822   5.905377049
H        1.088206979   0.378841686  -0.837006838
H        6.768427669  -0.013871038   1.154343694
H        6.521242718   0.840824001   5.670762090
H        5.484825391   5.595687705  -1.501281261
H        4.406458814   5.562489940   5.812366384
H        0.108530823   1.464767440   0.226036411
H       -0.115560583   0.076586669   7.216829704
H        0.735657739   6.262163882  -0.812204422
H       -0.666590692   5.573167759   4.915384775
H        6.729429048   4.662437395  -0.598197659
H        5.544565784   4.638833052   4.771643447
H        4.980198140  -0.161477593   1.131133241
H        6.513542811  -0.947093924   5.928197449
H        0.616947262   4.469735603  -0.857138000
H        0.293154685   4.253978184   5.668644341
H       -0.685802011   0.507587613  -1.070917292
H        0.703292759  -0.803592545   5.876509585
H       -0.862402588   1.733868379   5.592275612
H        0.673277968  -0.617572064   1.336908657
H        0.219928748   7.074510761   6.588213158
H       -0.697836104   6.267861931   1.120746780
H        4.099345140   0.781600670   5.566669046
H        6.764660607  -0.211532185  -1.270692073
H        6.288052909   6.463120862   7.019576004
H        4.714064196   6.490714733   0.617580651
H        1.140566198   5.862863336   7.279138014
H       -0.789406049   4.598349176   1.124557685
H       -0.122860039   0.897946670   4.358238595
H       -0.108827599  -1.503587143   0.134104163
H        7.374100923   5.630843797   6.058919614
H        5.889438926   5.607338282   1.446010515
H        4.082550660  -0.879749816   5.811740167
H        5.089239018  -0.300784580  -1.305511702
H       -0.964704244  -0.492821520   1.158572692
H        0.814071167   1.594061367   5.556807970
H       -1.464067262   5.461350522  -0.158857903
H       -0.538447819   5.801949659   7.346145478
H        5.989612574  -1.509595637  -0.585828223
H        4.765861469  -0.259010338   4.435320261
H        4.646075118   4.815687269   0.622539432
H        6.319620206   4.775435664   7.047741073
