CRYSTAL
PRIMVEC
11.2820 0 0
0 11.1747 0 
0 0 11.3552
PRIMCOORD
96 1
Pb       2.898792641   2.738201602   2.733001266
Pb       2.873599398   2.761175276   8.368480848
Pb       2.870890220   8.329617502   3.166171162
Pb       2.886542483   8.339932146   8.867858508
Pb       8.512187043   2.735573486   2.730318776
Pb       8.542012779   2.753484653   8.375868438
Pb       8.536786223   8.327970191   3.168482202
Pb       8.527873074   8.342047512   8.874208221
Cl       2.632753068   3.397888010   5.580127248
Cl       2.622938660   2.261307452  -0.093127450
Cl       3.221156708   7.863335769   5.973756648
Cl       3.213446454   8.873482481   0.293993031
Cl       8.837300904   3.344177740   5.579446375
Cl       8.752954184   2.210329958  -0.092593712
Cl       8.159632996   7.875102504   5.979750122
Cl       8.231672144   8.906468778   0.297512867
Cl       3.177245226  -0.060466539   3.379055193
Cl       3.045450732  -0.119556302   7.829651863
Cl       3.097718588   5.567026166   2.339199736
Cl       2.445224056   5.500723859   9.140588974
Cl       8.285910763  -0.061029723   3.390047561
Cl       8.382433494  -0.119357597   7.841593025
Cl       8.353916866   5.567565299   2.304908308
Cl       8.952026986   5.499054120   9.169499032
Cl       5.704853941   2.607261844   2.433609411
Cl       5.706485397   3.281308813   8.273250547
Cl       5.704697316   8.469006036   3.076947262
Cl       5.709356900   7.960795575   8.895362448
Cl       0.063796881   3.133327804   2.630299479
Cl       0.065848080   2.369565829   8.525784517
Cl       0.061330310   8.347462205   3.913571960
Cl       0.069428358   8.983091208   9.008800535
C        5.751674385   5.216036980   4.951621668
C        5.689948389   5.136535601  -0.346156786
C        5.733391611   0.730819148   5.784114463
C        5.664534149   0.206742855  -0.665271073
C        0.030595433   5.828604755   6.565188278
C        0.102031875   6.286165013   0.313730257
C        0.102118389   0.695341641   5.300843632
C        0.099456438  -0.349608669   1.089936459
N        0.061731207   4.862793426  -0.126992271
N        0.075599568   5.301612210   5.172147515
N        0.062607736   0.315813183  -0.242083450
N        0.067578865  -0.409873650   6.304056906
N        5.708692426   6.309188836   0.574867291
N        5.693814443   5.837476789   6.304293137
N        5.716113510  -0.192523340   0.770762435
N        5.705927917  -0.760219557   5.759540300
H        6.684587753   4.650365466   4.872806404
H        6.579135583   5.180658643  -0.981833769
H        6.653098793   1.064652488   5.294198304
H        6.537719451   0.831990171  -0.878378690
H       -0.892344594   6.404349050   6.685494680
H        0.082287152   6.923253878  -0.577170273
H        1.014506801   0.585597857   4.705355125
H       -0.782806776  -0.992367697   1.178032146
H        4.737055566   0.763501477  -0.833403308
H        5.714589767   1.056168027   6.827055334
H        4.782954146   5.188241525  -0.955863623
H        5.724816610   6.014114765   4.203066439
H        0.084385488   0.424765395   1.865076203
H        0.104306034   1.647774029   5.838450351
H        1.028631603   6.444329670   0.875631562
H        0.912676122   6.457004086   6.723726046
H        5.694931663   4.224941449   0.261498677
H        4.886028116   4.557641368   4.836981544
H        5.683578950  -0.702520068  -1.276778470
H        4.850502470   1.097531513   5.251583414
H       -0.778147278   6.474926180   0.937664283
H        0.041126235   4.979905453   7.257031202
H        1.022043573  -0.936038839   1.155699418
H       -0.789312105   0.611328951   4.670609504
H        0.899962676  -0.374663828   6.921438968
H       -0.789318460   0.907148897  -0.333029925
H        0.074576713   6.083815455   4.497340071
H        0.884655964   4.663212259  -0.721686307
H        6.534664658  -1.145028926   6.238955961
H        5.716148580   0.638801188   1.394425636
H        6.507085150   6.466617810   6.439563147
H        5.703175292   7.191058202   0.045374536
H       -0.744775871   4.688642588   5.003929422
H       -0.786910707   4.703449946  -0.698969104
H        0.060564180  -1.323594941   5.822285743
H        0.064762575  -0.385999554  -1.005937629
H        5.694318012   5.109967750   7.046032902
H        6.557746333   6.280018364   1.170302956
H        5.703815406  -1.137518562   4.794874556
H        6.568349066  -0.749210427   0.955460668
H        0.886321313   0.940671927  -0.358421914
H       -0.780789002  -0.349483102   6.898318593
H        0.059438411   4.216336511   0.685347628
H        0.929162624   4.724251675   5.041758705
H        4.900931637  -0.783057884   1.005205557
H        4.858241718  -1.111972754   6.231485193
H        4.877245363   6.286410050   1.194785121
H        4.840940124   6.421417546   6.395108580
