CRYSTAL
PRIMVEC
11.2820 0 0
0 11.1747 0 
0 0 11.3552
PRIMCOORD
96 1
Pb       3.106207179   2.816035474   2.935070325
Pb       2.910750544   2.754092569   8.474900081
Pb       2.752252654   8.419069246   3.207205212
Pb       2.733201406   8.312201885   8.779429734
Pb       8.727018990   2.833078783   2.683206889
Pb       8.514100814   2.686629973   8.386897202
Pb       8.612135595   8.368214327   3.037180246
Pb       8.374501565   8.311338397   8.745616761
Cl       3.132352362   3.405800352   5.708314076
Cl       2.614024982   2.566399905   0.027489245
Cl       2.437294679   7.855515158   5.960547575
Cl       2.886791418   8.155350058   0.300094302
Cl       8.483452126   2.710030917   5.520264211
Cl       8.933881585   2.187951636  -0.156906163
Cl       8.645921685   8.010293438   5.873252456
Cl       7.978490776   8.857470963   0.199358049
Cl       2.432210005   0.083462973   3.397348761
Cl       2.842070302  -0.062045431   8.502235360
Cl       3.530289477   5.651662629   2.812997120
Cl       2.288130937   5.499210699   8.966397874
Cl       9.088983992   0.030385968   3.212860093
Cl       7.971824918  -0.130952943   8.231092341
Cl       8.066669114   5.625434032   2.500467284
Cl       8.658805805   5.463237805   8.814462537
Cl       5.935440276   2.103900536   2.607057048
Cl       5.714853631   2.711396894   8.879323863
Cl       5.688455123   8.604300594   3.520676655
Cl       5.545671272   7.728359499   8.634339951
Cl       0.279545027   3.222328445   2.962333711
Cl       0.069132863   2.478517044   8.122748790
Cl       0.058563513   7.728857810   2.841657863
Cl      -0.090983362   8.663846759   8.995598793
C        6.240083700   5.104862752   5.700291270
C        5.543897053   5.141822706  -0.238212117
C        5.298735905   0.570952021   5.821456548
C        5.033463977  -0.478153884   0.017834976
C       -0.117815482   5.259191407   5.567304874
C       -0.333799085   5.570031844  -0.014404231
C       -0.032214976  -0.585328266   6.029574264
C        0.125155774  -0.514843469   0.559298244
N        0.993048425   5.441791100   0.652326013
N       -0.124154677   6.001241493   6.858987284
N        0.261584389   0.394965600  -0.614464680
N        0.054752630   0.764421154   5.407254958
N        5.702580173   6.406045206   0.532586186
N        5.214979770   6.186191530   5.753749180
N        6.186055766   0.451993008  -0.132142816
N        6.557694412  -0.071600946   5.355516067
H        7.227269725   5.557906043   5.836897422
H        6.407800121   5.025282924  -0.899909581
H        4.599717857   0.621393315   4.980925724
H        5.024869342  -1.162165449  -0.837015985
H        0.818810132   5.476887200   5.045654396
H       -0.175342994   5.948748274  -1.027396678
H       -0.104420749  -1.333501063   5.232155125
H       -0.814716015  -1.068933096   0.460384438
H        4.109569487   0.109859565   0.043563154
H        5.533572562   1.575496718   6.187415302
H        4.625442789   5.203233225  -0.831826845
H        6.178983124   4.613120123   4.724136380
H        0.115350485   0.092320800   1.470032704
H       -0.925197177  -0.624118145   6.662989524
H       -0.946835289   6.267151589   0.566164777
H       -0.973640760   5.591740872   4.970270096
H        5.488528283   4.309380421   0.473127687
H        6.027397306   4.387032032   6.499971035
H        5.163792981  -1.041167354   0.948731592
H        4.872423635  -0.030122219   6.632695811
H       -0.808729591   4.582615257  -0.047851902
H       -0.193677874   4.190564398   5.784783205
H        0.971539615  -1.209168896   0.566459143
H        0.867144316  -0.751001174   6.631321434
H       -0.781868731   0.938387426   4.827274332
H       -0.568219559   1.018211798  -0.673936404
H       -0.092229752   7.015520540   6.702534648
H        1.528917611   6.328494315   0.611465296
H        7.060752012   0.526018894   4.684264453
H        6.093072732   1.052541735  -0.973246697
H        5.373489604   6.895269486   5.012801117
H        5.786885272   7.215599264  -0.094577482
H        0.696889932   5.754600198   7.446478917
H        1.562155646   4.704322518   0.203600798
H        0.879989771   0.810240584   4.780555459
H        0.346922411  -0.141068113  -1.489391028
H        5.241007357   6.678689860   6.668072779
H        6.551730903   6.349380089   1.130083086
H        6.355893654  -0.971357696   4.876975656
H        7.066482948  -0.081057024  -0.200473522
H        1.094746057   1.006482504  -0.518830121
H        0.116109104   1.494221737   6.141999063
H        0.876059651   5.172456744   1.640458274
H       -0.978595211   5.797520787   7.416212379
H        6.247502749   1.075929774   0.697866421
H        7.189520578  -0.237770007   6.162315848
H        4.892154987   6.543946708   1.159424239
H        4.269549234   5.800464288   5.618751733
