CRYSTAL
PRIMVEC
11.2820 0 0
0 11.1747 0 
0 0 11.3552
PRIMCOORD
96 1
Pb       2.794960744   2.850726863   2.984495129
Pb       2.978695261   2.963744228   8.670440275
Pb       2.838120528   8.480176808   3.047060588
Pb       3.061908329   8.573381673   8.590247455
Pb       8.323384232   2.629897349   2.835050687
Pb       8.566862555   2.700698340   8.631352549
Pb       8.486459913   8.167786327   2.948939598
Pb       8.677097225   8.330957344   8.594715985
Cl       2.713356716   2.765345726   5.839180556
Cl       2.310792858   3.350773888   0.138043921
Cl       3.426771957   8.767591146   5.796974646
Cl       2.986118999   8.433781205   0.127028970
Cl       8.261310580   2.990064085   5.726615022
Cl       9.121991474   2.279973975   0.049688822
Cl       8.089455631   7.882526960   5.843693412
Cl       8.462023483   8.459873549   0.121032553
Cl       3.247975277   0.082891698   2.483351771
Cl       2.509438588   0.200944074   9.008266601
Cl       2.492325874   5.665478012   3.273993145
Cl       3.455226593   5.770285658   8.368306645
Cl       7.713433976  -0.208002068   3.104628686
Cl       8.795793201  -0.064349043   7.864308426
Cl       8.872360841   5.377164225   2.478874027
Cl       8.461074694   5.523278802   8.919969756
Cl       5.568911795   3.205322486   2.440862964
Cl       5.788555996   2.787897655   8.728047662
Cl       5.643045650   7.863153528   2.706604321
Cl       5.875332783   8.867327781   8.780766804
Cl      -0.053627689   2.246281483   3.052134425
Cl       0.135373494   3.325649804   8.346300177
Cl       0.005514189   8.766287722   3.033150774
Cl       0.252157695   8.007936794   8.228409834
C        5.294875444   5.449454459   5.317065333
C        5.900512624   5.591881301  -0.210377606
C        5.259898363   0.543387524   5.904889152
C        5.751347187   0.390140369  -0.210125886
C       -0.352073435   5.576226439   5.247599452
C        0.356676696   6.309065678   0.091906830
C        0.710436163  -0.213174967   5.911630948
C       -0.233312865  -0.642813592  -0.008434199
N       -0.558773945   5.149579180  -0.093010954
N        0.830809304   5.639293723   6.154503813
N        0.758979534   0.421119827   0.309063990
N       -0.136870131   1.011386763   5.967229045
N        4.612676891   5.664956452   0.537029827
N        6.201466631   5.402195324   6.497513151
N        5.760500655  -0.910237538   0.515341321
N        6.189086064  -0.619790439   5.866927367
H        5.901125688   5.410224160   4.406480091
H        6.537065754   6.423358599   0.111783919
H        4.591362024   0.477948689   5.039608183
H        6.742272092   0.849602968  -0.113791099
H       -0.289683247   4.661018944   4.648762045
H        0.983533292   6.408629591  -0.799465267
H        1.739872316   0.087643148   5.694463433
H       -0.809362457  -0.326360252  -0.885216524
H        4.993985183   1.037064494   0.246123158
H        5.852560507   1.464309816   5.870980669
H        5.683741120   5.664963426  -1.279348306
H        4.727398711   6.384814337   5.351111461
H       -0.894765806  -0.774108439   0.850804070
H        0.326871392  -0.866638066   5.119779870
H        0.971023873   6.125564558   0.980182600
H       -0.330047527   6.451724942   4.589523540
H        6.378372473   4.633883242   0.018245046
H        4.617839641   4.590440001   5.363128999
H        5.519582843   0.200097553  -1.261947310
H        4.678757686   0.500163302   6.832285218
H       -0.251024450   7.209999681   0.233059228
H       -1.260882975   5.573315364   5.858431836
H        0.310498137  -1.571296439  -0.213458906
H        0.660273447  -0.719423484   6.881026807
H       -0.180200330   1.470768305   5.032287934
H        0.280376288   1.305036732   0.530905740
H        1.700516893   5.639728541   5.602372508
H       -0.022872327   4.279203475  -0.211074328
H        6.723082694  -0.621797754   4.973292947
H        5.954128795  -0.772708586   1.518677038
H        6.834999775   6.226803754   6.488302665
H        4.115924761   6.557575264   0.345958724
H        0.839834865   4.822190284   6.790412189
H       -1.171434863   5.267807350  -0.922264585
H        0.234911383   1.703578851   6.639018806
H        1.393684028   0.567132293  -0.501349393
H        6.799132240   4.556159833   6.462328040
H        4.782310967   5.623956726   1.550582993
H        5.661815328  -1.502643278   5.942074387
H        6.504267154  -1.538693097   0.158329869
H        1.354339313   0.175389291   1.120574843
H       -1.092388654   0.772984664   6.283046418
H       -1.182509166   5.048681291   0.735310303
H        0.789889832   6.486578190   6.757765353
H        4.857425466  -1.407736380   0.427987556
H        6.876102407  -0.584897490   6.638467663
H        3.972989284   4.885122066   0.299207042
H        5.655914593   5.395250374   7.371760715
