CRYSTAL
PRIMVEC
11.2820 0 0
0 11.1747 0 
0 0 11.3552
PRIMCOORD
96 1
Pb       2.775019946   2.925266172   2.948958984
Pb       2.746297601   2.914915641   8.569324785
Pb       3.038977152   8.441282996   2.812281530
Pb       3.019964484   8.564796413   8.546172061
Pb       8.393714559   2.683668696   3.133676588
Pb       8.393030230   2.686225970   8.796207259
Pb       8.643398707   8.273765820   3.012725548
Pb       8.631427140   8.339051597   8.790053195
Cl       2.979505490   3.590948095   5.767794545
Cl       2.298181682   2.751877284   0.075335526
Cl       3.246889158   8.240116844   5.672143472
Cl       2.985575031   8.929406982  -0.014550805
Cl       7.999470700   3.221016196   6.031230278
Cl       8.832530022   2.296780752   0.327247996
Cl       8.502053747   8.147323523   5.916058143
Cl       8.935637968   8.926180574   0.273316871
Cl       2.667532345   0.082281176   2.740762952
Cl       3.626967605   0.170118611   8.234697489
Cl       3.310098075   5.634089129   2.425108018
Cl       2.629279343   5.734454889   8.678237588
Cl       8.958008732  -0.095663655   3.575439245
Cl       8.146035348  -0.089909181   8.189040262
Cl       8.452499653   5.446643721   2.337212731
Cl       8.880985438   5.485411053   9.221341804
Cl       5.580796479   2.483803596   2.451273917
Cl       5.560296199   3.182909604   9.291316997
Cl       5.846709968   8.759042013   2.924306798
Cl       5.800649452   8.032158933   8.354424093
Cl      -0.064752972   2.980645092   3.064631140
Cl      -0.074614960   2.376698751   8.312747474
Cl       0.219014337   8.079617759   3.308465028
Cl       0.138769319   8.624583714   8.176009363
C        5.881301042   5.710828458   5.023266031
C        5.755883569   6.380564662  -0.135652410
C        5.661038637   0.326237824   5.223988580
C        6.102113237  -0.350754707  -0.180659001
C       -0.463479779   5.258759266   6.009630152
C        0.336028756   6.193834419   0.228439366
C        0.759756123   0.042426365   5.524203972
C        0.132167684  -0.117944347  -0.490257685
N       -0.270168776   4.832565445   0.169853472
N        0.651762334   6.248131490   5.944892013
N       -0.073051845   0.143850415   0.962505833
N       -0.534806675  -0.060999206   6.250310925
N        5.819401007   5.063891428   0.549556701
N        5.596748027   5.382257171   6.449460489
N        4.860743663   0.450736255   0.023822585
N        5.844209903  -0.956076073   5.958616575
H        6.931884567   6.004831887   4.941274307
H        6.611930836   6.450523234  -0.812239802
H        6.481945221   1.001099892   5.492566609
H        6.958115806   0.330826149  -0.229204579
H       -0.347064870   4.547282284   5.185424333
H        0.886536525   6.364906660  -0.703084746
H        1.575015341   0.087874627   6.256678197
H        0.897083732   0.571971480  -0.858448931
H        6.002773508  -0.907964121  -1.118710161
H        4.703217797   0.761446780   5.531879332
H        5.789300655   7.174977521   0.619185375
H        5.226619433   6.530726585   4.714467009
H       -0.817858289   0.057637244  -1.005378411
H        0.739140361   0.949544084   4.910351768
H        1.017582290   6.235266315   1.083281206
H       -1.410064849   5.801644626   5.923287876
H        4.821650755   6.432340559  -0.704238892
H        5.684080094   4.817777348   4.419682727
H        6.212885532  -1.037124579   0.664878178
H        5.664285439   0.116933770   4.150654480
H       -0.470231426   6.927027548   0.343886446
H       -0.414627466   4.735888215   6.969864555
H        0.449414858  -1.156550544  -0.615198797
H        0.869851235  -0.838453536   4.883583806
H       -0.653839728   0.743085281   6.893081917
H       -0.452136540   1.092403968   1.109814933
H        0.623252077   6.789168717   5.056498221
H        0.457184633   4.101837602   0.058061938
H        5.866637121  -0.795391026   6.973890832
H        4.693511482   1.070772964  -0.780225304
H        5.685012524   6.215211767   7.064587127
H        6.697674231   4.983928449   1.096249538
H        1.565600806   5.781079724   6.026557686
H       -0.943416674   4.787781743  -0.619084928
H       -0.556124314  -0.920343607   6.827981004
H        0.809585911   0.059694739   1.506361834
H        6.258350222   4.652948817   6.764716828
H        5.771236539   4.295263285  -0.144566372
H        6.728632631  -1.434804142   5.715370363
H        4.942236554   1.043965419   0.871540743
H       -0.768872908  -0.512539971   1.345392067
H       -1.321547346  -0.092144974   5.575854653
H       -0.798985647   4.621485955   1.028455307
H        0.578773662   6.937348710   6.715216909
H        4.045429766  -0.179219349   0.126204055
H        5.067268590  -1.617868681   5.767662549
H        5.025758546   4.973047528   1.209637257
H        4.639003751   4.999973368   6.537071844
