CRYSTAL
PRIMVEC
11.2820 0 0
0 11.1747 0 
0 0 11.3552
PRIMCOORD
96 1
Pb       2.748021666   2.879282051   2.939984468
Pb       2.874329339   2.889122572   8.595903394
Pb       2.967429674   8.540714948   2.837073414
Pb       2.983033782   8.542006194   8.385901372
Pb       8.392925910   2.731754450   3.161921437
Pb       8.478297492   2.740767855   8.831571648
Pb       8.624943411   8.278968822   3.024040413
Pb       8.660387743   8.377463602   8.683913404
Cl       2.387870436   2.500314446   5.813718213
Cl       2.717495054   3.137930152   0.096538339
Cl       2.791271819   9.341879604   5.631787980
Cl       3.182238272   8.347363931  -0.051696241
Cl       8.883781239   2.512264967   6.000834594
Cl       8.062528708   3.214159267   0.337039594
Cl       8.761595909   8.384842307   5.852932489
Cl       8.151522828   7.970543386   0.157198561
Cl       2.359714003   0.108161389   2.438991749
Cl       3.474219025   0.091012009   8.952254060
Cl       3.189222646   5.690737976   2.671248824
Cl       2.326120399   5.682375301   8.252445466
Cl       8.793470924  -0.089512086   3.087721902
Cl       8.042304311  -0.040625697   9.062062568
Cl       8.004272715   5.518211441   3.487664539
Cl       8.868004567   5.540864811   8.318659169
Cl       5.537252488   2.492534762   3.420850964
Cl       5.725557264   3.114552885   8.015317757
Cl       5.798088766   8.628815989   2.829987885
Cl       5.802057464   8.060665160   8.398687388
Cl      -0.072006350   3.161464437   3.169928411
Cl       0.078170192   2.411178742   8.864906492
Cl       0.173591808   8.062514282   2.449577307
Cl       0.211122234   8.654042742   9.173329265
C        5.094994243   5.809488405   5.461322350
C        5.525058697   5.445365183  -0.553990100
C        6.278397240  -0.347689336   5.883539602
C        5.656996385   0.309469049   0.593650348
C        0.147595164   5.991868300   5.188002154
C       -0.404197764   5.228001130   0.018292880
C       -0.103459014  -0.226650756   6.442803779
C       -0.478704441   0.135723724   0.440300117
N        0.876933197   5.992607361   0.057865989
N       -0.051087390   4.920199317   6.203716745
N        0.763644246   0.088746527  -0.380848542
N        0.053082753   0.254635419   5.040742181
N        5.935495041   5.641000838   0.864701780
N        6.364561097   5.739476913   6.234677603
N        5.783482350  -0.957327236  -0.180328110
N        5.116603609   0.586247998   5.953278275
H        5.102590192   6.728505184   4.864569106
H        6.412092132   5.559401391  -1.186335234
H        6.256522384  -1.001264263   6.760780513
H        4.799783903   0.870698962   0.203202970
H        0.174264295   6.959462098   5.700617759
H       -0.342988272   4.488827849  -0.787025229
H       -0.162134424  -1.318095228   6.430490681
H       -1.344895536   0.107523618  -0.231624565
H        6.577404319   0.891745764   0.469931880
H        7.199491191   0.245025687   5.871850258
H        4.777304536   6.202840306  -0.809774676
H        4.253411083   5.803362486   6.165002579
H       -0.474539754   1.060962948   1.027384778
H       -1.022256718   0.205337096   6.852847149
H       -1.225753381   5.929637735  -0.161120972
H       -0.688134727   5.959707525   4.482768785
H        5.109879043   4.438020060  -0.654742657
H        5.046327203   4.939306146   4.798431504
H        5.502661741   0.060637080   1.647927510
H        6.193573722  -0.939454821   4.965836478
H       -0.533031970   4.724374295   0.982273555
H        1.087303999   5.804952020   4.655917049
H       -0.481955843  -0.729960587   1.109742654
H        0.764999376   0.109070598   7.018423189
H       -0.774283682   0.020976727   4.451166263
H        0.781892267   0.885650248  -1.044125255
H       -0.918843264   5.072204128   6.756291706
H        1.046336586   6.489865831  -0.827073931
H        5.173638596   1.191517572   6.788406308
H        6.013024189  -0.758424085  -1.164454352
H        6.437617228   6.539048244   6.888724648
H        6.409532179   6.551348820   0.981797201
H        0.738333227   4.918544010   6.875936122
H        1.672697375   5.356130548   0.226773413
H        0.895290279  -0.145820522   4.601623651
H        0.792049450  -0.787184207  -0.936232997
H        7.171830915   5.749422070   5.586938619
H        6.617916176   4.909321246   1.126773391
H        4.225373610   0.065526141   5.979017720
H        4.905151764  -1.513583905  -0.152114263
H        1.591551159   0.130695852   0.234204841
H        0.159906106   1.278808944   5.008199894
H        0.845268096   6.699806151   0.818198416
H       -0.114855050   3.996778465   5.754622751
H        6.540555943  -1.564659052   0.182441622
H        5.111440483   1.218950712   5.126880804
H        5.122087574   5.608078485   1.509392596
H        6.393522899   4.871656599   6.800816221
