CRYSTAL
PRIMVEC
11.2820 0 0
0 11.1747 0 
0 0 11.3552
PRIMCOORD
96 1
Pb       2.887982672   2.741054058   2.814906516
Pb       2.899393437   2.772225313   8.508255864
Pb       2.877528040   8.285937653   3.057639007
Pb       2.830487148   8.411791196   8.686871070
Pb       8.438280894   2.646567013   2.786070839
Pb       8.514868865   2.964660100   8.493166755
Pb       8.506326763   8.354125075   3.093213871
Pb       8.534288892   8.596758993   8.747038332
Cl       3.120919426   2.461052468   5.651231295
Cl       2.522950813   2.810387749   0.023100330
Cl       3.488441297   8.601680337   5.842260503
Cl       2.645620816   8.259426813   0.208541633
Cl       8.455360699   2.861694648   5.597463978
Cl       8.645621792   3.107726464  -0.028975289
Cl       8.517998521   8.641107733   5.895842495
Cl       8.487306459   8.339418678   0.248539850
Cl       3.460953321  -0.106397125   2.598579232
Cl       2.940056989  -0.011199877   9.082299433
Cl       2.020741991   5.500780174   3.008156010
Cl       2.888929475   5.595352575   8.127893221
Cl       7.585794735  -0.103520624   2.999202595
Cl       8.774336036   0.194077211   8.559642484
Cl       9.070402340   5.505636384   2.875259713
Cl       8.277629378   5.796132943   8.512042520
Cl       5.675960776   3.333483070   2.610071422
Cl       5.711652997   3.075796806   8.551436629
Cl       5.670174551   7.751172786   2.738311867
Cl       5.640664502   8.424930159   9.062200918
Cl       0.024642648   1.944420384   3.068799815
Cl       0.086163890   2.834960300   7.913866523
Cl       0.027462625   9.035780501   3.016390506
Cl       0.001750282   8.279745371   9.027486991
C        5.735922422   5.247955094   5.422810013
C        5.269554192   5.511549685  -0.236645177
C        5.997960497   0.126889751   6.559481518
C        5.992423607   0.497622835  -0.155626732
C       -0.109049100   6.174302173   5.935325499
C        0.097536198   5.308233942  -0.598806867
C        0.502823291  -0.354016656   6.245962900
C       -0.240618463   0.117047399  -0.313611062
N       -0.043283536   6.284809387   0.521618294
N       -0.046466967   4.786560503   5.393643908
N        0.999108560  -0.029596623   0.498331590
N       -0.765405186   0.168955756   5.662150416
N        6.615925197   5.606405415   0.395819067
N        5.668575315   6.114313217   6.634957879
N        5.606743870  -0.862881580   0.319750052
N        5.219524669   0.070053516   5.291765679
H        6.645815567   5.483654544   4.860577039
H        5.392003310   5.532185797  -1.322809989
H        5.299199874   0.082466757   7.402670657
H        6.979467069   0.440735373  -0.628362198
H        0.846840375   6.393496517   6.424050651
H        1.031115395   5.522354579  -1.129822267
H        0.296947055  -0.706632242   7.262862268
H        0.036122696   0.111488845  -1.371753882
H        6.017055660   1.173938672   0.706209939
H        6.559050764   1.065287745   6.580524123
H        4.668986118   6.363863612   0.099875443
H        4.854091203   5.442094448   4.803255719
H       -0.718904710   1.067712810  -0.051154292
H        1.236431669   0.459487829   6.263771693
H       -0.754353405   5.434004251  -1.274877731
H       -0.924941560   6.231879326   6.664071496
H        4.809366693   4.567291653   0.074461341
H        5.750929905   4.203735502   5.749676342
H        5.245938071   0.833949546  -0.882858107
H        6.684397145  -0.724246527   6.583878251
H        0.116547051   4.297938707  -0.180482231
H       -0.289177921   6.866027293   5.104306436
H       -0.909615308  -0.722635583  -0.094356618
H        0.855999662  -1.176822757   5.615003862
H       -1.156100643   0.920518865   6.248580678
H        1.643882646   0.761827747   0.306724737
H        0.156232214   4.099592555   6.151980711
H       -0.084549638   7.244729627   0.153705737
H        4.565433378   0.875964733   5.233860170
H        6.317300873  -1.245163202   0.957981329
H        5.584583323   7.107356026   6.385453728
H        7.102797041   6.485344695   0.147185876
H        0.675684491   4.732830745   4.654050212
H        0.756252525   6.215299217   1.174882686
H       -1.475964235  -0.581310592   5.600951229
H        1.499326565  -0.911687057   0.288153215
H        6.505440616   5.994301349   7.241396691
H        7.226305497   4.808113948   0.128240227
H        4.643015809  -0.792230630   5.268293034
H        5.502841214  -1.522738634  -0.477389192
H        0.784848708  -0.024112928   1.505436008
H       -0.593729757   0.572433337   4.719126863
H       -0.894172104   6.102334212   1.084985200
H       -0.946575941   4.514933520   4.973551569
H        4.722505515  -0.819129835   0.855779680
H        5.843474599   0.072590373   4.465041311
H        6.526846890   5.590688363   1.420866227
H        4.824018716   5.880899402   7.200237793
