CRYSTAL
PRIMVEC
11.2820 0 0
0 11.1747 0 
0 0 11.3552
PRIMCOORD
96 1
Pb       2.792749539   2.745465746   3.100295230
Pb       2.873206871   2.667739478   8.682730260
Pb       2.982821255   8.379943223   2.953378830
Pb       2.996274318   8.297040501   8.667634504
Pb       8.450082322   2.923202909   2.952936442
Pb       8.599605984   2.713447129   8.577071015
Pb       8.542736688   8.591527543   2.778099295
Pb       8.612144973   8.354453570   8.449890454
Cl       3.294700290   2.442923476   5.899384201
Cl       2.847776752   2.838432722   0.235733396
Cl       2.848123822   8.644075812   5.815176649
Cl       2.450523039   7.991026073   0.146583675
Cl       8.146994154   2.520570167   5.793106304
Cl       8.228278297   3.210139463   0.091696620
Cl       8.428372192   9.001224399   5.600966998
Cl       9.051576527   8.095501269  -0.071538905
Cl       3.561753463  -0.016465466   2.782398332
Cl       2.184783603  -0.113937178   8.766440018
Cl       2.459709035   5.575632034   3.410650481
Cl       3.256347603   5.492277916   8.206894395
Cl       7.888579215   0.161051532   2.539422213
Cl       9.291740949  -0.083134522   8.813860351
Cl       8.622376134   5.754844519   2.812180601
Cl       8.125285199   5.515966272   8.249742342
Cl       5.598973200   3.225181953   3.191287329
Cl       5.746407750   2.459672904   8.716084533
Cl       5.781970206   8.053173188   2.427823519
Cl       5.831523231   8.403331527   9.036972383
Cl      -0.035553675   2.855106822   2.858731654
Cl       0.127229233   3.203263140   8.161497045
Cl       0.146870357   8.825419621   2.962878065
Cl       0.168711263   7.899406614   8.348398662
C        5.761544771   6.139591775   5.422802545
C        5.204031627   5.232786705  -0.013610523
C        5.616137979  -0.344857978   6.476028007
C        5.623110161  -0.127426327  -0.245471831
C       -0.510657844   5.714304800   5.362077720
C        0.099611614   5.140699326  -0.211486055
C        0.116391178   0.461117413   5.368956369
C       -0.103166688   0.366238745   0.554734287
N        0.074213736   5.852122933   1.099971392
N        0.726827615   5.621671143   6.182986911
N        0.157129369  -0.888545830  -0.204185238
N        0.064640051  -0.792280412   6.175012276
N        6.438606349   6.067465889  -0.042418580
N        5.700461204   4.875643153   6.207868511
N        5.610577374   1.195185384   0.440868912
N        5.802811471   0.286095820   5.139287795
H        4.859982792   6.208027731   4.805145451
H        4.332714090   5.896119280  -0.052788142
H        5.569401736  -1.429422253   6.346574661
H        6.608753047  -0.584165284  -0.105244308
H       -0.487838040   6.652883883   4.796655837
H        1.076638605   5.305932314  -0.678038274
H        0.198121675   0.184012724   4.312639148
H       -0.920613097   0.905982488   0.062774533
H        5.427063889   0.032785141  -1.309378919
H        4.681956788   0.033130174   6.905394428
H        5.201174122   4.656452241   0.917628161
H        6.649233633   6.117226568   4.781369788
H        0.808815218   0.974218266   0.554580944
H        0.988431304   1.044515196   5.685582912
H       -0.695056676   5.552255840  -0.843434314
H       -1.378125082   5.686129414   6.032384538
H        5.216601691   4.563539984  -0.880431947
H        5.814098707   6.979115587   6.125750322
H        4.851491840  -0.760255381   0.206592069
H        6.467030398  -0.070413655   7.108406070
H       -0.062833176   4.074482676  -0.027313228
H       -0.532208380   4.865473725   4.670735226
H       -0.385093238   0.103836925   1.578831557
H       -0.804026223   1.029800199   5.545356857
H        0.912899173  -1.374002606   6.031570044
H        0.503834304  -0.672632770  -1.155314885
H        0.783570503   6.419060720   6.843460487
H        0.251961052   6.857773194   0.975303555
H        5.008079979   0.098122508   4.495644456
H        6.357481400   1.818328140   0.084352138
H        5.656442857   4.057785423   5.583969830
H        6.461922150   6.691849567   0.786139336
H        1.560101751   5.620853859   5.574504210
H        0.799750847   5.499908183   1.748678355
H       -0.772323716  -1.351464098   5.922159153
H       -0.696542778  -1.472975164  -0.284648603
H        4.864882754   4.872663173   6.824406118
H        6.458229174   6.669599852  -0.883117630
H        6.664815673  -0.042224500   4.675605348
H        5.770857219   1.075762450   1.449951400
H        0.878960222  -1.477443359   0.244973407
H       -0.001230234  -0.583226328   7.181074944
H       -0.844628058   5.751422236   1.578610773
H        0.714138239   4.760119855   6.766107061
H        4.699893410   1.685524027   0.320968877
H        5.887867401   1.308486860   5.222233730
H        7.276586422   5.466124854  -0.035626765
H        6.532952477   4.793046786   6.819581480
