CRYSTAL
PRIMVEC
11.2820 0 0
0 11.1747 0 
0 0 11.3552
PRIMCOORD
96 1
Pb       2.804071485   2.738633045   2.970649856
Pb       2.675209847   2.762479326   8.571809562
Pb       3.068095734   8.300378041   2.999706693
Pb       3.000140809   8.282539488   8.625597150
Pb       8.419007822   2.900035716   3.000032831
Pb       8.425514041   2.852564689   8.675446905
Pb       8.723846731   8.439794231   3.095279509
Pb       8.535019197   8.452696925   8.617206058
Cl       2.384435068   2.491490188   5.773992933
Cl       2.993198094   2.935532028   0.092354637
Cl       3.435343342   8.769406527   5.851262799
Cl       2.297906668   8.244484466   0.170344557
Cl       8.509020074   2.697233254   5.839784632
Cl       7.895112159   3.146615249   0.166433800
Cl       8.007783214   8.742022396   5.845183112
Cl       9.106010159   8.333647072   0.185614674
Cl       2.782905308  -0.074712010   3.105190876
Cl       2.958267809  -0.070831704   9.008107983
Cl       2.992378715   5.518624733   3.254388320
Cl       2.358607570   5.535991750   8.138617381
Cl       8.441449235   0.064421495   2.945519369
Cl       8.280571411   0.059830785   9.163672395
Cl       8.181622909   5.671679081   3.372282487
Cl       8.232640215   5.663892891   8.545058440
Cl       5.590441630   2.717220043   3.403507038
Cl       5.551405709   3.026511966   8.449338971
Cl       5.894072735   8.358664938   2.607512303
Cl       5.791254105   8.325144178   9.371237475
Cl      -0.023260472   3.364646715   2.845579030
Cl      -0.070804351   2.259944123   8.951641395
Cl       0.281810591   8.229851795   3.774951309
Cl       0.174261614   8.746942311   8.248776888
C        5.417526811   6.153080769   5.916712284
C        5.215926254   5.475816233   0.227149590
C        5.720684682   0.366375340   6.156355295
C        5.531368583  -0.145160870   0.573746770
C       -0.591906579   5.486960550   6.326049783
C       -0.245389955   5.270448871  -0.464360379
C       -0.431945298   0.332528502   5.672683244
C        0.004414980   0.461764296   0.645364873
N        0.911472186   5.385042907   0.471362591
N        0.546482254   5.424154879   5.367399403
N       -0.030584374  -0.497476554  -0.494645807
N        0.836383236  -0.426702355   5.852069015
N        6.561997212   6.110267905   0.261958510
N        6.124307629   4.844522962   5.862153112
N        5.579284081   0.706470321  -0.645008410
N        5.735959320  -0.301936682   4.824063412
H        5.654052124   6.715972988   5.007369654
H        5.133724964   4.891346847  -0.696025156
H        5.653519358   1.445750857   6.000047415
H        4.627474820   0.098610008   1.142585196
H       -1.514823459   5.643364707   5.757864407
H        0.128832301   5.374059651  -1.489057484
H       -0.380127322   0.890319011   4.731590674
H       -0.982107625   0.930314646   0.729478977
H        6.428772675   0.042316701   1.173442439
H        6.650198632   0.114430457   6.678758400
H        4.458618958   6.268778129   0.253974081
H        5.767458812   6.699487463   6.800155494
H        0.770399976   1.217924397   0.439090456
H       -0.539000322   1.027781432   6.510689665
H       -0.957495062   6.071618321  -0.237967070
H       -0.412151274   6.316744015   7.017425700
H        5.114864258   4.820834545   1.098671788
H        4.341897822   5.965850712   5.983595077
H        5.508914782  -1.191729290   0.254076827
H        4.852520596  -0.000434901   6.715867090
H       -0.709208231   4.287809637  -0.326354553
H       -0.639010456   4.538598984   6.870469365
H        0.245092260  -0.088387628   1.561854591
H       -1.268278730  -0.375854364   5.650315430
H        1.640406527   0.218913189   5.864892055
H       -0.228784906   0.004414598  -1.373470121
H        0.624931751   6.315264414   4.839223674
H        1.345621850   6.332175067   0.423087345
H        6.550581672  -0.005036747   4.254144825
H        5.612578894   1.707199026  -0.418201987
H        7.141585701   4.966787357   5.793211978
H        6.659507501   6.770385155  -0.529302953
H        0.422926281   4.666127557   4.671346869
H        1.641458911   4.676860766   0.251698330
H        0.974945239  -1.108134804   5.089471362
H       -0.762788848  -1.224250198  -0.350196347
H        5.842859266   4.280669137   5.038035120
H        7.289927943   5.377282194   0.197804541
H        4.873145057  -0.100537108   4.291906297
H        4.747309896   0.532529650  -1.242930860
H        0.867512396  -0.990627540  -0.604601863
H        0.806333227  -0.976644152   6.733283228
H        0.620780440   5.186741857   1.441032625
H        1.428420938   5.262454931   5.875106026
H        6.430303844   0.485830438  -1.204237431
H        5.805750372  -1.322339364   4.935439578
H        6.686151513   6.646977854   1.134706962
H        5.939013657   4.276377718   6.714490680
