CRYSTAL
PRIMVEC
11.2820 0 0
0 11.1747 0 
0 0 11.3552
PRIMCOORD
96 1
Pb       2.916128588   2.857006347   2.875919585
Pb       2.873252688   2.731583202   8.428213638
Pb       2.908494505   8.414085861   3.092682855
Pb       2.792697329   8.353026913   8.722995887
Pb       8.522237252   2.756317968   2.802221450
Pb       8.563205767   2.789609209   8.533158824
Pb       8.458820523   8.345592633   3.044109502
Pb       8.413539072   8.340735072   8.626047831
Cl       2.180410721   2.740426852   5.624771572
Cl       3.308485218   2.587706049  -0.030992691
Cl       2.855836837   8.477486725   5.896493696
Cl       2.448139671   8.552945128   0.238973146
Cl       8.894548063   2.572936746   5.650104845
Cl       7.777124044   2.719906164  -0.026482475
Cl       8.107922268   8.304622548   5.812765570
Cl       8.583254600   8.092284300   0.139079580
Cl       2.892774567   0.069141929   2.882264806
Cl       2.750366655  -0.049127969   8.766314324
Cl       2.137987832   5.657239353   3.048677286
Cl       2.657041805   5.517764968   8.539596037
Cl       8.217013460  -0.023138439   3.126364923
Cl       8.289615975   0.017874554   8.661895224
Cl       8.911495583   5.553366220   2.898123547
Cl       7.927081366   5.573639733   8.592577880
Cl       5.747806636   2.993428805   3.587410674
Cl       5.729028664   2.707171777   7.876912677
Cl       5.699269768   7.529463623   2.922907898
Cl       5.600460458   8.698274908   8.958029631
Cl       0.075822268   2.421914893   2.411829409
Cl       0.078555742   2.531604862   9.075129664
Cl       0.035127865   8.698001046   3.353794727
Cl      -0.056146562   8.032122763   8.541718120
C        5.236263127   5.916887051   6.030074164
C        5.161752671   5.788805707  -0.349269571
C        5.292460338  -0.477372320   5.772474033
C        5.736099614  -0.450913011   0.541357395
C       -0.449313270   5.262877980   6.154185020
C        0.096463539   5.225874194  -0.196349557
C       -0.101419926  -0.354830237   6.335891456
C       -0.445506097  -0.481019049   0.020096278
N        0.039612482   6.455983188   0.645285517
N        0.774238856   6.085267528   5.959353403
N        0.772240256   0.372941516   0.075973271
N        0.046902308   0.378368450   5.045750330
N        6.440547645   5.650235344   0.406301373
N        6.549669748   5.335706325   5.633121345
N        5.543628392   0.326431636  -0.715222619
N        6.538162892   0.331572667   5.872705345
H        4.601087359   5.981881190   5.140955613
H        5.381091517   5.698910324  -1.417784219
H        4.690730181  -0.095149499   4.939638664
H        4.845443695  -1.068389529   0.702211179
H       -1.114198155   5.410503711   5.296331634
H        0.055481978   5.525336528  -1.248676207
H       -0.969645476  -1.019222678   6.259671546
H       -0.354172483  -1.169278846  -0.828095090
H        5.871739101   0.248767454   1.372692669
H        4.735874043  -0.388984528   6.712042272
H        4.734536272   6.773871411  -0.130643420
H        5.408858026   6.916521465   6.443326870
H       -1.320562920   0.165891414  -0.110618762
H       -0.241822572   0.375529106   7.141002819
H       -0.752824654   4.583577692   0.062139032
H       -0.937315799   5.583172624   7.082012226
H        4.480079233   4.990414973  -0.035913470
H        4.789430668   5.263838352   6.786056625
H        6.621348554  -1.086009386   0.424609583
H        5.570465627  -1.522290230   5.602131383
H        1.034691495   4.697417055   0.006287303
H       -0.147230232   4.213000921   6.215473587
H       -0.516925465  -1.042342889   0.958469825
H        0.807209016  -0.940696664   6.506922097
H       -0.788224193   0.955260048   4.862668013
H        0.850307265   0.953387453  -0.777158983
H        0.568911816   7.091243932   5.965235804
H       -0.848512835   6.972118530   0.489392066
H        6.318697940   1.321391608   6.068380060
H        4.721500606   0.956513225  -0.633315123
H        7.032451145   5.951719830   4.965945037
H        7.140546517   6.348948158   0.094996245
H        1.240898982   5.866271161   5.056482726
H        0.824954446   7.104687773   0.430533049
H        0.174994873  -0.286151231   4.264638395
H        1.619259172  -0.204009060   0.164627302
H        6.416659119   4.414190254   5.173817367
H        6.853186043   4.704579974   0.281328105
H        7.098482446   0.279550763   5.000964510
H        5.410946018  -0.321555965  -1.511284240
H        0.718860715   1.022371794   0.886853129
H        0.854503997   1.030790127   5.079773701
H        0.109307148   6.224352415   1.645875739
H        1.451997889   5.916317458   6.729997702
H        6.364887599   0.919082809  -0.904763620
H        7.132873462   0.016164591   6.659273341
H        6.289776834   5.840892753   1.411318436
H        7.148852678   5.234890558   6.472246819
