CRYSTAL
PRIMVEC
11.2820 0 0
0 11.1747 0 
0 0 11.3552
PRIMCOORD
96 1
Pb       2.622362474   2.862944845   3.009230046
Pb       2.657043945   2.853588183   8.640027701
Pb       3.015814489   8.457165613   2.949771092
Pb       3.059763694   8.393458818   8.632743038
Pb       8.284909426   2.651731998   2.962424691
Pb       8.309359871   2.819023664   8.580707675
Pb       8.654894298   8.310241558   2.949421278
Pb       8.729830727   8.345997686   8.596338499
Cl       2.443608515   2.989647413   5.815062958
Cl       2.440599132   3.095941813   0.140713963
Cl       3.467600281   8.449576376   5.776714250
Cl       3.013304014   8.227701252   0.107369383
Cl       8.257105881   3.286368626   5.766126438
Cl       8.317653518   2.295901934   0.101091097
Cl       8.177881580   7.902200805   5.760460710
Cl       8.822378989   9.118044524   0.073426263
Cl       3.111953909   0.105539611   3.210648733
Cl       3.067849436   0.038489398   8.603260744
Cl       2.640313215   5.693333134   3.197834123
Cl       2.525826401   5.643581355   8.578954651
Cl       7.949880891  -0.168834236   3.387975460
Cl       8.197563959  -0.034451977   8.177678693
Cl       8.866559905   5.433091849   2.619231498
Cl       8.934700753   5.547019297   9.135107264
Cl       5.461584217   3.282650918   2.779838826
Cl       5.473759349   2.873383120   9.080894115
Cl       5.817574169   7.860456503   2.695395417
Cl       5.883747265   8.377669376   8.904667641
Cl      -0.181732217   2.296429621   2.703725843
Cl      -0.167152746   2.382333864   8.876225277
Cl       0.199126719   8.630948542   3.622499468
Cl       0.246603681   8.655991735   8.001219387
C        5.376750841   5.470124882   6.279966714
C        6.130649086   5.572473576  -0.145114786
C        5.520771775   0.731382987   5.915362787
C        5.273940173  -0.004309455   0.530196505
C       -0.365536138   5.232393418   5.876008490
C        0.219252103   6.164099823   0.235533792
C       -0.204384139   0.456390467   5.794120007
C        0.794769587  -0.470512092   0.124787423
N       -0.392091468   4.805629002   0.189406173
N        0.729856420   6.244407400   5.837523367
N       -0.398672788   0.415029842   0.076944781
N        1.139387573  -0.191908078   5.839249820
N        4.748101650   5.509822551   0.413285285
N        6.051934266   5.560773246   4.956707561
N        6.059095092   0.002226658  -0.736554429
N        6.031931552  -0.667699030   5.875274446
H        4.293871829   5.485020464   6.124518392
H        6.649788151   6.413698391   0.326038872
H        4.898602934   0.901163423   5.030881476
H        4.218039190  -0.151873883   0.281419187
H       -0.322762227   4.632606855   4.960764071
H        0.871406551   6.280881968  -0.636538320
H       -0.715074943   0.125143837   4.883200841
H        0.790804246  -1.110163487  -0.764080876
H        5.419134485   0.957250779   1.035880534
H        6.381831968   1.409030876   5.912358897
H        6.064785426   5.722741336  -1.225897664
H        5.685023004   6.327938286   6.888988298
H        0.734588298  -1.083975252   1.030974864
H       -0.064058947   1.541561853   5.783949735
H        0.802751441   6.252953307   1.158617460
H       -1.321465577   5.762500163   5.935291470
H        6.640367525   4.628859138   0.078265427
H        5.675212199   4.530782151   6.759344267
H        5.633093413  -0.823927667   1.163367191
H        4.934067678   0.865231160   6.829760364
H       -0.586450255   6.908391153   0.214665811
H       -0.223374151   4.596522751   6.756598712
H        1.696133792   0.151695094   0.140723754
H       -0.765984888   0.150550717   6.683128607
H        1.722832770   0.059119679   5.019095910
H       -1.260563630  -0.163008525   0.062320665
H        0.633618588   6.869737290   5.014875618
H        0.341823664   4.076221725   0.177631982
H        6.626527360  -0.794038346   5.033608681
H        5.776718704   0.796990743  -1.341406719
H        5.844111221   6.446135350   4.458516134
H        4.223433105   6.392708594   0.245324176
H        1.647588803   5.786489152   5.789098724
H       -0.980863839   4.720067777  -0.659815465
H        1.040363977  -1.215647387   5.836784988
H       -0.391141713   1.022543686  -0.767386304
H        5.773295774   4.781218534   4.326373258
H        4.774123702   5.355418375   1.430863557
H        5.263857967  -1.363404913   5.860929973
H        5.947956466  -0.880671049  -1.272428150
H       -0.433693726   1.038917781   0.907054552
H        1.663783509   0.056370053   6.696157204
H       -1.006043336   4.670509654   1.012940104
H        0.703764437   6.850017172   6.678577533
H        7.063081961   0.120427614  -0.544082733
H        6.635101023  -0.843331414   6.696807411
H        4.200418527   4.728666127   0.015562919
H        7.073148417   5.508678826   5.070207774
