CRYSTAL
PRIMVEC
11.2820 0 0
0 11.1747 0 
0 0 11.3552
PRIMCOORD
96 1
Pb       2.647536351   2.793496981   2.949532887
Pb       2.773305249   2.885589916   8.612706685
Pb       2.992983173   8.562008795   2.923875141
Pb       3.031559513   8.562540753   8.672132173
Pb       8.395459301   2.603227158   2.899141256
Pb       8.409837235   2.686239541   8.548743427
Pb       8.634150456   8.248606759   2.850089986
Pb       8.750749770   8.319733129   8.609569670
Cl       2.407937009   3.142840290   5.763240758
Cl       3.116993441   2.896639659   0.101635633
Cl       3.441118847   8.440530462   5.773044742
Cl       2.722049575   8.336450531   0.105114021
Cl       8.919243728   2.286805837   5.701821236
Cl       7.812881033   2.539257618   0.037556388
Cl       8.417127943   8.403715684   5.737455911
Cl       8.653740780   8.282632431   0.055891691
Cl       2.134018766   0.067663497   3.323095937
Cl       2.739546940   0.130116244   8.511778889
Cl       3.025576244   5.670277537   2.758221864
Cl       3.117073668   5.706206976   8.557354165
Cl       9.039370670  -0.110635175   2.467273246
Cl       8.998908676  -0.050950937   8.950714586
Cl       8.190509221   5.445136367   2.838253138
Cl       8.272205562   5.515036121   8.398616793
Cl       5.499714100   2.370479755   3.240872960
Cl       5.582681985   2.531564500   8.061389266
Cl       5.850999551   8.802587328   2.560267985
Cl       5.895103587   8.652497186   8.852469622
Cl      -0.114921508   3.204741397   2.276433195
Cl      -0.049272948   3.206875796   9.179545414
Cl       0.217055380   8.052124502   3.373433195
Cl       0.275007706   7.935095775   8.310137878
C        5.634015947   5.255180967   5.478975227
C        5.764924728   5.954852328  -0.148875523
C        6.086933499  -0.323628637   5.776078229
C        5.136639978   0.229481673  -0.009878486
C       -0.477641052   5.239924048   5.705467851
C       -0.193272830   6.150108382   0.107901808
C        0.409110459  -0.234217311   6.308403314
C        0.496899885  -0.334081726   0.018812440
N        1.121242167   5.451879480   0.040082795
N        0.804549938   5.999224352   5.779862612
N       -0.333525802   0.901061134   0.034314315
N       -0.651569751  -0.385288855   5.274236247
N        5.662582845   4.985186148   0.979671698
N        5.704333936   6.156015550   6.663479255
N        6.426681426  -0.511948003  -0.016832989
N        4.797008565   0.426011870   5.731432520
H        6.517046851   5.426401301   4.853738168
H        6.698361971   5.767370899  -0.690845770
H        6.903960209   0.407444830   5.788946098
H        5.076638057   0.839047642  -0.917492166
H       -0.490842510   4.668321010   4.770927008
H       -0.756505674   5.912098410  -0.800825865
H       -0.066980162  -0.201531248   7.293548632
H        1.552273368  -0.045338365   0.006297786
H        5.109114505   0.871811406   0.876567745
H        6.151325743  -0.961103403   4.888199529
H        5.769519933   6.967568699   0.268147543
H        4.721079358   5.481648795   4.917067736
H        0.250847720  -0.907221188  -0.882048051
H        0.951008623   0.697344899   6.112103450
H       -0.004824200   7.224472438   0.172607553
H       -1.306872167   5.956331728   5.731513865
H        4.903386852   5.819328211  -0.811102178
H        5.610693449   4.219859402   5.835459250
H        4.318684641  -0.500663019   0.013456052
H        6.104412534  -0.934686660   6.684307861
H       -0.728905890   5.792344062   0.994225920
H       -0.530718709   4.562032650   6.563554166
H        0.269809200  -0.916418229   0.918158901
H        1.090363811  -1.088433696   6.239709457
H       -1.276187036   0.447280439   5.282948124
H       -0.153062918   1.511723109  -0.788653333
H        0.874364902   6.648843827   4.973370599
H        1.668745225   5.762372491  -0.776701562
H        4.772951728   1.028116688   4.887165719
H        7.218050930   0.147450171  -0.044330896
H        5.692929585   7.146025735   6.390281718
H        6.475184186   5.099731635   1.622989709
H        1.601207493   5.341007891   5.774885755
H        0.998947881   4.433793798  -0.039553418
H       -1.244615850  -1.221186221   5.441249670
H       -0.166476237   1.480872912   0.879592938
H        6.568239891   5.977975647   7.221725072
H        5.659726735   4.012966566   0.646975804
H        4.726630106   1.045689067   6.558965831
H        6.483088941  -1.140860189  -0.838956396
H       -1.334248821   0.669807502   0.020751957
H       -0.238354475  -0.474353728   4.336106911
H        1.693971340   5.632413581   0.884904389
H        0.834677107   6.570564422   6.646793134
H        6.507192798  -1.104882381   0.829978806
H        3.996922675  -0.221761170   5.719029806
H        4.796053661   5.142796009   1.528734559
H        4.891013180   6.005751599   7.290681316
