CRYSTAL
PRIMVEC
11.2820 0 0
0 11.1747 0 
0 0 11.3552
PRIMCOORD
96 1
Pb       2.890000966   2.874403575   3.124857960
Pb       2.733415591   2.560678161   8.798326768
Pb       3.055053348   8.353752718   3.061974980
Pb       2.845312587   8.104013207   8.766714120
Pb       8.435946690   3.026036966   3.020695113
Pb       8.404542473   2.733556484   8.699114440
Pb       8.635530140   8.675925432   2.939650643
Pb       8.645168186   8.293547371   8.524765092
Cl       2.651077352   2.048587883   5.933145717
Cl       2.568490966   3.106268788   0.266173079
Cl       3.458123421   8.727801328   6.027465516
Cl       2.540810436   7.811793879   0.331210538
Cl       8.509837994   2.639069665   5.855424112
Cl       8.516985933   3.415279555   0.154818495
Cl       8.126818812   8.890356710   5.778718318
Cl       8.882082701   8.132241819   0.068317644
Cl       2.627970923   0.041031245   2.656543141
Cl       3.390876669  -0.300291319   9.117618800
Cl       2.997134508   5.638392578   3.904843570
Cl       2.427485854   5.293539129   8.027461705
Cl       8.764045368   0.287616876   2.290382249
Cl       7.970793672  -0.134109145   8.923783620
Cl       8.513970432   5.867707024   2.939081797
Cl       8.795971729   5.473364758   8.183872534
Cl       5.661011186   2.915609018   3.008229973
Cl       5.541254235   2.942206454   8.227102108
Cl       5.822367663   8.457068131   2.299535055
Cl       5.775637716   7.774522495   8.947988730
Cl       0.038008809   3.279520337   2.995248724
Cl      -0.075987185   2.283626635   8.847843363
Cl       0.192718849   8.487941206   3.198879230
Cl       0.173141259   8.817498489   8.203943886
C        6.259272762   5.803392532   5.363898692
C        5.239387321   5.139156082   0.094856309
C        5.734288028   0.118081442   5.055990096
C        5.631560648   0.735312672   0.321419488
C       -0.210362550   6.028008273   5.663245668
C        0.093080789   5.595407901  -0.593668435
C       -0.435973049   0.346778503   5.571888687
C        0.106270607  -0.438416087  -0.276106910
N       -0.054115896   5.864848941   0.865383689
N        0.017132936   4.592426151   5.995930281
N        0.176457332   0.745060062   0.629121996
N        0.755709943  -0.547573696   5.590843819
N        6.506546969   5.920674285   0.157710256
N        5.220074162   5.679918864   6.426191352
N        5.794120950  -0.656356655  -0.185901015
N        5.602722249  -0.038812803   6.531991584
H        7.240428507   5.626443806   5.816560562
H        5.218734497   4.592988562  -0.855407306
H        6.566312865   0.799226248   4.853197906
H        5.586796678   1.411538488  -0.540916506
H       -1.160914429   6.117132379   5.127182090
H        1.113305061   5.248798950  -0.778263850
H       -0.399328729   0.959953518   4.664952011
H        1.014374861  -0.466467873  -0.886683058
H        6.489277394   0.981040684   0.953876315
H        4.798063991   0.534128989   4.671259594
H        4.392106566   5.831492261   0.156117320
H        6.211455864   6.814243205   4.946325830
H       -0.776236804  -0.338469131  -0.916381148
H       -0.402022748   0.984925584   6.460604082
H       -0.101958219   6.529695995  -1.131395862
H        0.615755906   6.362089068   5.028959404
H        5.222155423   4.434049520   0.931467682
H        6.047549133   5.060757382   4.588330998
H        4.700610550   0.792989506   0.895543661
H        5.925050635  -0.868633005   4.621955258
H       -0.633541106   4.831551941  -0.885040962
H       -0.234725785   6.600150435   6.595682621
H        0.030935306  -1.340019127   0.341188188
H       -1.341872353  -0.269614005   5.582577110
H        1.619705445   0.022115869   5.597219138
H        0.286319661   1.616994134   0.094438952
H        0.119459973   4.033096836   5.129336869
H        0.633218082   6.581470167   1.150943278
H        5.401679638   0.864463693   6.993158233
H        6.653965831  -0.725266355  -0.761808823
H        5.349143709   6.399149677   7.160801153
H        6.563521474   6.570560801  -0.645092647
H       -0.778751023   4.209644222   6.525593776
H        0.090986748   5.013847975   1.438083320
H        0.756656412  -1.169526809   4.762689058
H        0.986562807   0.656808260   1.273494686
H        5.262215358   4.756863806   6.898500565
H        7.325408466   5.280895961   0.142853951
H        6.472403418  -0.407847338   6.948164444
H        4.998672190  -0.881884648  -0.810672529
H       -0.687489956   0.800508157   1.204693074
H        0.743195071  -1.150740661   6.434917004
H       -0.996303425   6.226012752   1.081934872
H        0.873178240   4.500837614   6.571416203
H        5.833716126  -1.346410469   0.589041306
H        4.834790795  -0.699806248   6.746933452
H        6.563303657   6.491654540   1.013927059
H        4.277276953   5.791746630   6.022036739
