CRYSTAL
PRIMVEC
11.2820 0 0
0 11.1747 0 
0 0 11.3552
PRIMCOORD
96 1
Pb       3.007753519   2.837148579   2.876420247
Pb       3.021633506   2.912889507   8.562785686
Pb       2.734546019   8.440531512   2.916034095
Pb       2.828566296   8.395616897   8.604692271
Pb       8.572084196   2.718324986   2.908694271
Pb       8.699180136   2.832995362   8.566546708
Pb       8.369999528   8.366086147   2.900119990
Pb       8.511034153   8.374672264   8.559056315
Cl       2.621420394   3.159209166   5.643770593
Cl       2.649597804   2.438816367  -0.046907439
Cl       2.921307971   8.194363983   5.728672559
Cl       2.596868363   8.917026773   0.043997422
Cl       9.157754836   2.505306015   5.704730232
Cl       8.578041714   3.419142232   0.059478498
Cl       7.928773597   8.645352015   5.745695858
Cl       8.501577287   7.703537582   0.061923973
Cl       2.967186833   0.062828794   3.594306886
Cl       2.849079721   0.070207966   8.087909004
Cl       2.515002781   5.617660784   2.756934386
Cl       3.265698545   5.668725356   9.154949938
Cl       8.140148762  -0.040466964   2.394177479
Cl       8.780156451   0.024124213   9.063664514
Cl       8.698972580   5.538224794   3.403337336
Cl       8.152069652   5.594144364   8.008466170
Cl       5.816917545   3.087234263   3.500986389
Cl       5.843789939   2.605664031   9.039848751
Cl       5.556357476   8.034116751   2.982644120
Cl       5.691513293   8.785759923   8.949824476
Cl       0.164738857   2.727317085   2.800800073
Cl       0.210007783   2.773985685   8.562038854
Cl      -0.082286631   8.175056029   3.035929050
Cl       0.040636855   8.527436087   8.599752205
C        5.163557600   5.634615959   6.426345328
C        5.405640893   5.221179595   0.556211106
C        6.215282575   0.486433211   5.935117046
C        5.184603779   0.088811107   0.801652495
C        0.226632919   5.947887424   6.320092950
C        0.460446047   5.682438128  -0.232411853
C       -0.352776530  -0.557102158   5.669118464
C       -0.403384256  -0.001167311   0.454972088
N       -0.337202160   5.532181912   1.017737886
N        0.160076786   5.187239486   5.041774667
N        0.526411294   0.060077912  -0.705847872
N        0.548017779   0.621485544   5.810118163
N        6.123236676   5.639189795  -0.679623487
N        6.119121520   5.758205877   5.292139444
N        6.176936131   0.060571549  -0.311108763
N        5.236974405  -0.637408046   5.869639827
H        4.153132534   5.511977537   6.026305767
H        4.645624501   4.481155556   0.277606439
H        6.844334125   0.450743415   5.039461003
H        4.180182620   0.156057796   0.375214278
H        0.221345541   7.016977327   6.088278047
H        1.511757843   5.805952864   0.042233914
H       -0.933525447  -0.441843991   4.747232161
H       -1.096171740   0.844233376   0.393606433
H        5.399255740   0.957484498   1.434774622
H        6.831540785   0.357272303   6.832225636
H        4.933856491   6.099937484   1.007366589
H        5.227674405   6.542725716   7.034085157
H        0.184160697   0.057838063   1.377517991
H       -1.025043229  -0.584363047   6.533092454
H        0.100969437   6.566446203  -0.771779066
H        1.156152984   5.682328251   6.836155463
H        6.131998939   4.784923018   1.249601639
H        5.453949806   4.766962338   7.029292824
H        5.294496358  -0.828949592   1.389371936
H        5.663047404   1.431249134   5.972504961
H        0.332217420   4.778203249  -0.838792853
H       -0.642287809   5.680892801   6.931518142
H       -0.955534830  -0.946043225   0.409066349
H        0.259724668  -1.464307774   5.627868934
H       -0.015486305   1.486348174   5.868678039
H        1.080521969   0.936876761  -0.690349848
H        0.949649859   5.422185926   4.410944069
H       -0.240468127   6.362949514   1.631022857
H        5.743663565  -1.535312140   5.808466979
H        6.109354832   0.909139271  -0.910465346
H        5.885478126   6.557159365   4.671627336
H        5.451879262   6.017656466  -1.366989065
H       -0.726839654   5.378267923   4.532952883
H       -0.034833932   4.701109057   1.556667014
H        1.199580656   0.695195722   5.010915820
H        0.000626061   0.004742214  -1.588034408
H        6.114681035   4.901450354   4.701867145
H        6.590654017   4.832066702  -1.114907638
H        4.604438745  -0.545732155   5.052766767
H        6.031758963  -0.760629782  -0.934256903
H        1.197158936  -0.733549805  -0.658066590
H        1.141781121   0.549588305   6.657054530
H       -1.336643702   5.406407931   0.803250728
H        0.209488584   4.174183275   5.205460282
H        7.134445093   0.011436236   0.064399274
H        4.626823172  -0.649565222   6.703982361
H        6.852872403   6.352324914  -0.473145029
H        7.075628348   5.906185562   5.642751701
