CRYSTAL
PRIMVEC
11.2820 0 0
0 11.1747 0 
0 0 11.3552
PRIMCOORD
96 1
Pb       2.883532386   2.776453884   3.050475911
Pb       2.875439865   2.828482540   8.619485788
Pb       2.848463395   8.253619915   2.938598240
Pb       2.845573132   8.444058144   8.542130707
Pb       8.557355137   2.720636231   2.988825391
Pb       8.413240818   2.855540571   8.638010868
Pb       8.510300157   8.287856792   2.911516996
Pb       8.427542375   8.508814195   8.642587304
Cl       3.443607599   3.139927371   5.845230334
Cl       2.773495470   2.435019362   0.182790581
Cl       2.499747180   7.857038435   5.727708247
Cl       2.817907483   8.563965273   0.059320755
Cl       8.068489008   3.031392492   5.794270543
Cl       8.656516442   2.635885517   0.135674138
Cl       8.843678670   7.995453957   5.705360391
Cl       8.613702293   8.915454103   0.057407095
Cl       3.367740395  -0.049661371   3.234186316
Cl       3.021306213   0.068924698   7.831519885
Cl       2.373868922   5.498967321   2.306721188
Cl       2.465437905   5.624831910   9.019072533
Cl       7.567648120  -0.033041661   3.118007440
Cl       7.823310321   0.110179900   8.206124290
Cl       9.113531264   5.492922153   2.584178242
Cl       8.909181952   5.662682223   8.803925128
Cl       5.698021274   3.326421897   2.659396956
Cl       5.620886093   3.223617346   9.278247367
Cl       5.618044794   7.525093501   3.023428367
Cl       5.621776277   8.049203647   9.067572719
Cl       0.102918763   2.002196500   3.120748908
Cl       0.014297088   2.893166702   8.422537260
Cl       0.007414949   9.008408187   2.967092050
Cl       0.029930734   8.793340356   8.420178196
C        5.757470003   6.041487983   6.501047785
C        6.469411648   5.831982401   0.136436694
C        5.626101060  -1.161822907   5.890048488
C        5.541745554  -0.176322655  -0.420135863
C        0.112697459   5.112047297   5.478296528
C       -0.117313984   6.411892854   0.036295172
C       -0.691726328   0.139055439   5.915827790
C        0.016461809   0.213838812  -0.544350421
N       -0.021215482   4.921766559  -0.021292917
N        0.050350358   5.901592368   6.738825029
N        0.885652966  -0.153546592   0.606964214
N        0.675326003  -0.362114994   5.590899031
N        4.986592726   5.678471930   0.078931095
N        5.817746475   5.229440822   5.256013640
N        5.815698285   0.966030056   0.497082961
N        5.772190896   0.313244029   5.732756651
H        4.842662108   6.642306211   6.475893691
H        6.867659225   5.625943856  -0.860505423
H        4.812575380  -1.504053226   5.244342999
H        5.321054673   0.221437887  -1.416179120
H        1.021161591   5.395371901   4.934495667
H        0.658001140   6.832459886  -0.608813608
H       -1.367624032  -0.152181195   5.104263194
H        0.647874928   0.349103756  -1.429081269
H        4.689032349  -0.741309708  -0.029302490
H        5.411277201  -1.378684433   6.940883094
H        6.863522451   5.121678926   0.868204892
H        6.639929135   6.688064278   6.531901770
H       -0.507593679   1.143748747  -0.303880133
H       -0.651127358   1.229009578   6.009436902
H        0.034688659   6.721380629   1.074421838
H       -0.772465906   5.346001067   4.876674202
H        6.700047328   6.860209462   0.427843462
H        5.745899846   5.368590228   7.366055243
H        6.430197879  -0.814526182  -0.457300694
H        6.572995299  -1.629132678   5.596174106
H       -1.111383727   6.705852205  -0.307192598
H        0.132283586   4.048216602   5.738162146
H       -0.701074342  -0.595627329  -0.711173205
H       -1.008337318  -0.316436064   6.857917376
H        1.007844000   0.035763767   4.699469488
H        1.526104328   0.626938342   0.823763592
H        0.012083640   6.911991838   6.549422596
H        0.867883039   4.606365423   0.394613504
H        4.879974942   0.804811786   5.880303384
H        4.992484228   1.582033290   0.576361189
H        5.806867850   5.838120885   4.413470719
H        4.746655472   4.773696481  -0.353417213
H        0.872792493   5.734113593   7.344428316
H       -0.069494610   4.569521583  -0.991056286
H        0.679722232  -1.385897808   5.481117099
H        1.469003718  -0.988279736   0.388794714
H        5.012375420   4.580670333   5.212716660
H        4.571912229   6.420758265  -0.503737154
H        6.137049976   0.519559763   4.783960127
H        6.605602803   1.547449181   0.165446906
H        0.345382909  -0.385795853   1.455316136
H        1.363532512  -0.132846833   6.335647047
H       -0.797636605   4.496014913   0.508105455
H       -0.793441146   5.677354133   7.304769882
H        6.078026516   0.635560043   1.442828125
H        6.465438303   0.656111155   6.422977547
H        4.554189111   5.721033371   1.014422240
H        6.665648284   4.632612817   5.247238175
