CRYSTAL
PRIMVEC
11.2820 0 0
0 11.1747 0 
0 0 11.3552
PRIMCOORD
96 1
Pb       2.864333139   2.738106395   2.939185084
Pb       2.905979743   2.812336434   8.620804689
Pb       2.930753069   8.354515292   3.043740998
Pb       2.903403675   8.432466122   8.741264431
Pb       8.572380341   2.809781766   2.846620746
Pb       8.541133001   2.846305909   8.460074668
Pb       8.497887960   8.332635607   2.950263279
Pb       8.488236959   8.457093450   8.567834871
Cl       3.042707257   2.861349312   5.780926537
Cl       2.966994807   2.978362269   0.088632388
Cl       2.784786706   8.182423361   5.903191448
Cl       2.653151702   8.537495115   0.219641518
Cl       8.347352895   2.818877591   5.662847141
Cl       8.288069555   2.802319668  -0.032554026
Cl       8.565755833   8.181096954   5.775001207
Cl       8.660940920   8.654553147   0.072934814
Cl       2.222243690  -0.032217816   3.309759603
Cl       3.366277161   0.023116355   8.253844723
Cl       3.461637091   5.536027000   3.038133623
Cl       2.216357101   5.603707752   8.619031485
Cl       8.908448815   0.002256820   2.757616485
Cl       7.829409883   0.074428177   8.488801828
Cl       8.107573806   5.582737750   2.501550426
Cl       9.242323372   5.639572956   8.696960185
Cl       5.703284305   2.240919191   2.830639838
Cl       5.709307315   3.467948787   8.467160952
Cl       5.712073097   8.818070605   2.629878900
Cl       5.689491799   7.930603899   8.342183053
Cl       0.072204694   3.172863373   2.467371670
Cl       0.092371296   2.365473810   8.439590537
Cl       0.069701354   8.070544394   3.179202590
Cl       0.078236117   8.986572402   8.493931929
C        6.104317820   5.601418753   5.188697135
C        5.646127646   6.014569406  -0.130153233
C        5.665679958  -0.343723382   5.432172098
C        5.341687477  -0.101307893  -0.227798711
C        0.029942842   5.232290406   5.427573471
C        0.106512753   6.039419752   0.478118923
C       -0.529101154   0.009025353   5.547230133
C        0.108123983   0.373681001  -0.098717882
N        0.071524352   4.817333956  -0.374848264
N        0.027628581   6.505427063   6.200192980
N        0.077395859  -0.839657904   0.762363679
N        0.778245174   0.036130488   6.257539687
N        5.648211031   4.714726656   0.597673860
N        4.989554544   5.648598673   6.177188973
N        6.642605239   0.010793529   0.484964257
N        5.707713300   0.971523068   6.131737032
H        6.004141605   6.453689026   4.508532829
H        5.647872489   5.808538870  -1.204840662
H        6.606745984  -0.871830843   5.625558060
H        5.538854302  -0.196824997  -1.299794358
H        0.104438635   5.472297364   4.361681884
H        0.121274221   6.916774457  -0.177089167
H       -0.594431811   0.889218916   4.900847155
H        0.084729251   0.055160220  -1.146131042
H        4.753332002   0.802296205  -0.028030680
H        5.542611925  -0.162737156   4.360727146
H        6.543790839   6.574285788   0.156585348
H        6.032470000   4.665794394   4.624581689
H        1.026896922   0.933627554   0.110396704
H       -1.334247372   0.020349131   6.290957553
H        1.009537867   6.007628081   1.096178865
H       -0.903266005   4.695670681   5.634406951
H        4.747215615   6.573319179   0.155666864
H        7.054120278   5.653231618   5.729895416
H        4.815209682  -0.984294420   0.150665059
H        4.822771602  -0.921071525   5.829073849
H       -0.784334882   6.042936204   1.114326924
H        0.888115371   4.629740523   5.747079365
H       -0.767788031   0.990501900   0.133263439
H       -0.575862528  -0.900861477   4.940256081
H        0.850710979   0.881314089   6.848146699
H        0.897417679  -1.452490933   0.573303801
H       -0.784667402   7.098925271   5.941664379
H        0.896311368   4.792329875  -0.997970784
H        6.505105130   1.550863038   5.806740533
H        7.170206065   0.853364983   0.192024286
H        4.081537626   5.619461795   5.696878745
H        6.489138480   4.154975012   0.368014610
H        0.893431454   7.054507353   6.034346245
H       -0.761169944   4.837391460  -0.992071862
H        1.553594905   0.017761921   5.574831277
H       -0.784548860  -1.390730983   0.587415374
H        5.044981003   6.512680931   6.751362066
H        4.808352515   4.149204985   0.365731713
H        5.830029899   0.834778762   7.144423900
H        7.248087648  -0.815528050   0.315938482
H        0.095266742  -0.599135605   1.762118705
H        0.854820812  -0.775620459   6.895807810
H        0.060895792   3.978146299   0.226984107
H       -0.038251540   6.321426066   7.210573286
H        6.504543885   0.079433284   1.501672291
H        4.836219359   1.513137435   5.983197088
H        5.645122521   4.863165637   1.614756306
H        5.054118320   4.849960626   6.836752100
