CRYSTAL
PRIMVEC
11.2820 0 0
0 11.1747 0 
0 0 11.3552
PRIMCOORD
96 1
Pb       2.768418356   3.076038042   2.956251941
Pb       2.754755979   2.904110785   8.561554265
Pb       3.017084992   8.499541859   2.951654994
Pb       3.023248472   8.447699380   8.639807098
Pb       8.417489617   2.731388493   2.869689532
Pb       8.469204211   2.528948861   8.569840710
Pb       8.652581338   8.225437433   2.903360096
Pb       8.705160873   8.098630670   8.703031599
Cl       3.291078101   2.726672895   5.731257588
Cl       2.353506660   2.964383938   0.097386927
Cl       2.641363344   8.556047714   5.782474627
Cl       3.165305547   8.656457065   0.119645403
Cl       8.119738841   2.623797530   5.698001210
Cl       8.806620628   2.523625625   0.052398384
Cl       9.056187469   7.972217955   5.785550471
Cl       8.499391120   8.432402132   0.134593264
Cl       2.670644729   0.193298657   2.770656889
Cl       2.693532359   0.091617481   8.731509488
Cl       3.548416441   5.750311276   2.533979592
Cl       3.344614013   5.641650815   9.035263122
Cl       9.185782655  -0.134239441   3.259493880
Cl       9.064767341  -0.296570739   8.217459475
Cl       7.910953143   5.465145860   3.176513390
Cl       8.054302750   5.313412954   8.296475753
Cl       5.543047128   2.417794133   2.415194215
Cl       5.570999669   2.422910264   9.108956445
Cl       5.858789857   8.940031369   3.467243490
Cl       5.880265352   8.450118979   8.462343146
Cl      -0.095968166   3.299776761   3.188228242
Cl      -0.082362723   3.232419723   8.239822575
Cl       0.228757299   7.868337513   2.652264104
Cl       0.260800145   7.846339211   8.883606820
C        5.246386698   5.389245823   5.799747815
C        6.229647829   5.948856020   0.024705667
C        5.667693257  -0.249461891   6.362937239
C        6.123187362  -0.335581135   0.099916408
C        0.715528107   5.671549824   5.771660102
C       -0.493719176   5.360466995   0.025869970
C        0.449453407   0.617960130   5.786521037
C       -0.017097843  -0.464352808  -0.143405230
N        0.857518718   5.988744278   0.068327689
N       -0.686098143   5.169086444   5.769804918
N        0.043965358   0.533792090   0.963928546
N       -0.127715442  -0.754107742   5.835647924
N        5.426364729   4.693918457   0.037472194
N        6.087926869   6.617041696   5.831613881
N        4.765904665   0.278429746   0.046340947
N        5.680633887   0.625393339   5.156984208
H        5.427802422   4.870628516   4.852841743
H        6.008456280   6.491047978  -0.900980215
H        4.854119563  -0.974127656   6.256171186
H        6.251556731  -0.972061922  -0.781901633
H        1.393464055   4.809228412   5.768069735
H       -0.582200430   4.786544208  -0.902669721
H        1.104369126   0.691655536   4.912965719
H        0.780605180  -0.245525790  -0.861486715
H        6.195379096  -0.942841775   1.008498974
H        5.505874534   0.375865141   7.247857367
H        7.289750065   5.683806389   0.069610294
H        4.195222432   5.684507680   5.879883655
H       -0.996514055  -0.391616742  -0.627080821
H        1.021483623   0.780846723   6.704179543
H       -1.242275247   6.161180989   0.059877880
H        0.866383107   6.272967838   6.674502560
H        5.948993230   6.544549601   0.899463871
H        5.530885029   4.757748189   6.648098604
H        6.871306141   0.466006373   0.109683594
H        6.632167945  -0.762170592   6.433800563
H       -0.597679964   4.700017830   0.892360018
H        0.864967918   6.287397024   4.878202639
H        0.118874668  -1.462147887   0.287052817
H       -0.375752021   1.334715151   5.713206064
H        0.616245776  -1.473297598   5.879671506
H       -0.110624993   1.488296357   0.617207056
H       -0.847189284   4.582711772   6.608669625
H        0.974851719   6.608534541  -0.755242829
H        4.825537566   1.210298468   5.118193748
H        4.039011918  -0.461536239   0.024808092
H        5.883526826   7.258803078   5.043437225
H        5.647915125   4.075773217  -0.768431280
H       -0.850287908   4.587683091   4.931434796
H        1.594549868   5.267020459   0.051082680
H       -0.712647999  -0.921109264   5.001405475
H        0.961412102   0.499799457   1.450782155
H        7.088080969   6.384943642   5.770475824
H        4.422817432   4.905646570  -0.030238432
H        5.743723737   0.050345241   4.303943274
H        4.676853955   0.867510055  -0.798675466
H       -0.686966310   0.335732964   1.678614126
H       -0.753767566  -0.842967090   6.661507113
H        0.954619252   6.565462827   0.923091420
H       -1.352894663   5.965949431   5.774663586
H        4.609579888   0.878309231   0.870788883
H        6.492376508   1.275950361   5.198758186
H        5.568853206   4.144874274   0.903388425
H        5.959853176   7.151011192   6.717822718
