CRYSTAL
PRIMVEC
11.2820 0 0
0 11.1747 0 
0 0 11.3552
PRIMCOORD
96 1
Pb       2.993580231   2.988263749   3.063220004
Pb       2.878731309   2.796106687   8.685313772
Pb       2.989415893   8.663432065   3.035666504
Pb       2.742702894   8.311789626   8.667400215
Pb       8.596505263   2.859425877   2.927077546
Pb       8.532302896   2.706568225   8.624662414
Pb       8.597480918   8.468187803   2.861155585
Pb       8.419963601   8.194546675   8.489216759
Cl       2.999125401   3.387327652   5.847952885
Cl       2.497087278   2.599294040   0.157456900
Cl       2.590171793   8.688490497   5.840271567
Cl       3.331147020   8.645299513   0.134928479
Cl       8.427023225   3.041026031   5.793405732
Cl       8.872128173   2.478101311   0.105580753
Cl       8.980348438   7.892211158   5.644382147
Cl       7.865840598   8.594290711  -0.037329882
Cl       2.302573272   0.253405390   3.302037606
Cl       2.502056222  -0.079153008   8.873908111
Cl       3.583757404   5.869136092   2.865933649
Cl       3.670002026   5.542661476   8.867155613
Cl       9.092769482   0.091449006   3.334416198
Cl       8.758705441  -0.174962229   7.987257143
Cl       8.388900644   5.703705127   2.301148577
Cl       7.995644186   5.443079253   9.124376521
Cl       5.786113006   2.326022946   3.238084449
Cl       5.722299291   2.246704237   8.897853744
Cl       5.834012144   8.789833133   3.656231476
Cl       5.585289674   8.640991572   8.100887268
Cl       0.127164328   3.464914773   3.113919885
Cl       0.067499728   3.531273176   8.556829296
Cl       0.180267992   8.428728682   2.553650602
Cl      -0.071574655   7.768667552   9.011072419
C        6.120846209   5.410735383   5.688618282
C        5.715324209   4.588724716   0.433233570
C        5.040852971   0.374167788   5.974446082
C        5.644334384   0.336250811   0.599058863
C        0.623562780   6.153579018   5.679509727
C        0.795700402   5.708093418   0.249242701
C        0.207047570   0.810540448   6.138590088
C       -0.372966483  -0.471858192  -0.313438497
N       -0.611013619   5.305508721  -0.038780009
N       -0.423150060   5.102000726   5.771168073
N        0.888196867  -0.198126823   0.430747288
N       -0.058149464  -0.569521838   5.636555662
N        5.610230231   6.032541098   0.073347423
N        4.878065835   6.222647444   5.835429976
N        5.623722584  -0.386023329  -0.703915767
N        6.456388958   0.070673897   5.616930409
H        6.744705040   5.865438092   4.910987331
H        4.765231140   4.104921757   0.179774826
H        4.433469531   0.281136821   5.068099195
H        4.772276999   0.997997494   0.644934306
H        1.600384744   5.659407894   5.690062704
H        0.827908494   6.796228710   0.356605475
H        1.048056333   1.228564694   5.576154504
H       -0.174512354  -0.360127244  -1.384220071
H        6.565003606   0.927458666   0.652880790
H        4.990842390   1.397550627   6.355223826
H        5.909630849   4.512684798   1.505973584
H        5.833435491   4.393419403   5.402749365
H       -1.134264422   0.242968026   0.014750767
H        0.448005533   0.751014137   7.204223084
H        1.424161936   5.382403686  -0.586297223
H        0.511828264   6.823180314   6.536789297
H        6.533519727   4.146100002  -0.142925102
H        6.648729209   5.401347998   6.648754204
H        5.616999292  -0.396996770   1.413847059
H        4.709323290  -0.342012680   6.732431905
H        1.108060103   5.223796992   1.179186865
H        0.480853295   6.711130607   4.747486821
H       -0.686950261  -1.497633135  -0.096065235
H       -0.696952747   1.409658519   5.983220553
H        0.790297123  -1.166108159   5.682139178
H        1.268758908   0.753707237   0.249401193
H       -0.324629243   4.551437703   6.648415098
H       -0.945836220   5.746319395  -0.908572853
H        6.826759224   0.803031707   4.994188184
H        5.682633754   0.296511824  -1.486028957
H        4.337029177   6.197444142   4.949849930
H        4.920767790   6.502906855   0.677646081
H       -0.347657588   4.449325583   4.962144969
H       -1.259740877   5.564511154   0.730665716
H       -0.390994049  -0.534083008   4.657504579
H        1.629567086  -0.867205950   0.164458856
H        5.090984760   7.202890113   6.071292050
H        5.282557618   6.124492679  -0.903917669
H        6.493508551  -0.825199962   5.094399248
H        4.755421949  -0.933729092  -0.799751427
H        0.758931907  -0.290131083   1.448948661
H       -0.809259982  -1.015063286   6.183958335
H       -0.703500505   4.286208538  -0.165502882
H       -1.358335931   5.529953839   5.757321116
H        6.410871276  -1.059520944  -0.749753486
H        7.077517823   0.007910266   6.445011335
H        6.513351719   6.526062242   0.165622078
H        4.295477720   5.841142873   6.599870296
