CRYSTAL
PRIMVEC
11.2820 0 0
0 11.1747 0 
0 0 11.3552
PRIMCOORD
96 1
Pb       3.017987165   2.775170226   2.987651771
Pb       2.841083201   2.756164976   8.738565216
Pb       2.923597314   8.476972069   2.979369086
Pb       2.771554003   8.424047918   8.650700085
Pb       8.643323681   2.733753020   2.849192713
Pb       8.525312715   2.760490755   8.569365711
Pb       8.529682605   8.347047260   2.828174521
Pb       8.410168310   8.322607722   8.522998803
Cl       3.141747757   2.782922247   5.891436432
Cl       3.088854622   3.418258995   0.200549760
Cl       3.024244364   8.300976634   5.841553815
Cl       2.516924520   8.010926879   0.155813075
Cl       8.548316350   2.550516426   5.699804559
Cl       8.537905122   2.598238941   0.013590613
Cl       8.499395092   8.576213741   5.667078519
Cl       8.781588137   8.304310113  -0.031159020
Cl       2.725306895   0.058407834   2.258714020
Cl       3.706438524  -0.013718016   8.723157462
Cl       3.225089069   5.629051407   3.130002506
Cl       2.326593035   5.543861390   8.376889875
Cl       9.239522185  -0.026922378   2.816617778
Cl       7.719580541  -0.032702694   8.572217135
Cl       8.685779883   5.558575991   2.879411846
Cl       9.062843948   5.531456103   8.332095134
Cl       5.826386177   2.400025576   2.900093941
Cl       5.672921833   3.264247070   8.483964515
Cl       5.706128297   8.312025010   2.592965367
Cl       5.548722367   7.555510426   8.797262843
Cl       0.191230987   3.125158798   3.323827574
Cl       0.056434726   2.260407718   8.202895129
Cl       0.098184241   8.224584858   2.914866388
Cl      -0.069761401   9.071975258   8.472110818
C        6.115835098   5.575995319   5.410970169
C        6.353571924   5.211471517   0.252061757
C        5.531461686  -0.312892581   5.244586010
C        5.877799178  -0.297898901   0.446550732
C        0.111938591   6.119967114   5.447956540
C       -0.247415843   5.380386529  -0.111954386
C        0.548820501  -0.017967222   5.342794355
C        0.316164098   0.369819759  -0.344179273
N        0.483239083   5.535234143   1.177872745
N        0.064792735   4.840565475   6.206567787
N        0.063604522  -0.887253591   0.410846361
N       -0.781375801  -0.081917226   6.010787804
N        5.169682621   6.114067878   0.271809355
N        4.856074999   5.628988331   6.207047945
N        5.704954143   1.018693301  -0.233818241
N        5.784675701   0.876832633   6.104697915
H        6.736252103   4.756034768   5.790054135
H        6.349244195   4.608369431   1.165938823
H        6.448046776  -0.912097876   5.196973470
H        4.927267993  -0.839136770   0.403680624
H        1.026943405   6.135499080   4.847049656
H        0.043895507   6.196600653  -0.781198333
H        1.109464546   0.820666702   5.771540255
H        0.625794224   0.109543276  -1.360384202
H        6.156044352  -0.111552933   1.488121942
H        5.247204370   0.032289756   4.244336404
H        7.259311367   5.826520577   0.210050472
H        6.644349691   6.529482510   5.524019115
H        1.102946428   0.929894015   0.174484448
H        0.393944544   0.130456482   4.269555422
H       -1.321668764   5.421123565   0.091998049
H        0.112977171   6.949294622   6.164345117
H        6.281588136   4.571206895  -0.633061839
H        5.857006839   5.410320894   4.360125899
H        6.667824741  -0.852315112  -0.072546845
H        4.726035680  -0.901530975   5.696673964
H        0.023712943   4.416732519  -0.557969966
H       -0.769035672   6.172672766   4.801382744
H       -0.612766000   0.949830657  -0.373767295
H        1.073227835  -0.962199496   5.530548900
H       -1.315355219   0.797299449   5.889076453
H        0.913874621  -1.471435836   0.481979047
H        0.878912501   4.774402299   6.843509983
H        0.258585008   6.436504639   1.647586679
H        6.558513219   1.458007813   5.736499425
H        4.994013291   1.594864531   0.238456083
H        5.054582653   5.806684188   7.204483640
H        5.226940386   6.787252195   1.061045139
H        0.056960625   4.034074458   5.565219287
H        1.501104703   5.518967385   1.035838753
H       -0.661008595  -0.258003854   7.020331819
H       -0.669671962  -1.468797663  -0.036124191
H        4.325122672   4.743608678   6.138509012
H        4.300921925   5.569820925   0.369736563
H        6.066220752   0.588567120   7.058443324
H        5.405757777   0.878266504  -1.213133590
H       -0.274279827  -0.685852683   1.366647734
H       -1.364475709  -0.859741299   5.645402720
H        0.256469538   4.775913620   1.850634650
H       -0.777662119   4.818488799   6.811134427
H        6.596486933   1.553111176  -0.225808713
H        4.943834591   1.478132444   6.175532521
H        5.126757926   6.658213374  -0.613767932
H        4.235956707   6.398642656   5.891194287
