CRYSTAL
PRIMVEC
11.2820 0 0
0 11.1747 0 
0 0 11.3552
PRIMCOORD
96 1
Pb       2.868761781   2.848366459   2.740925814
Pb       2.882587412   2.922539865   8.562847855
Pb       2.905278983   8.390982187   2.845353318
Pb       2.967529335   8.469363409   8.569066824
Pb       8.376954599   2.762914920   2.988097771
Pb       8.528130264   2.824206394   8.726642179
Pb       8.511214954   8.319009297   2.943187890
Pb       8.680820965   8.486920612   8.726089384
Cl       2.455483722   2.780440606   5.628542402
Cl       2.748437893   3.466957511  -0.069200763
Cl       3.225499271   8.827785519   5.704045760
Cl       3.140511117   8.183545069   0.012677445
Cl       8.480622448   3.443498806   5.868472442
Cl       8.579853876   2.146705218   0.159207320
Cl       8.307181927   7.980305547   5.852125369
Cl       8.536951833   9.207264307   0.139773766
Cl       2.623210350   0.046687334   2.849905669
Cl       3.000764683   0.104133215   8.916364034
Cl       2.481589343   5.619833684   3.161278609
Cl       3.412694837   5.674659917   8.163429880
Cl       8.340795473  -0.035218332   3.462270235
Cl       8.317116776   0.056489217   8.053916332
Cl       8.913109833   5.537541564   2.542821163
Cl       8.307059686   5.653211321   9.465515564
Cl       5.634936773   2.763043299   3.141316508
Cl       5.719860939   2.933861050   8.929851338
Cl       5.720525172   8.264046016   2.897976526
Cl       5.818766595   8.559745686   8.639650496
Cl      -0.008558676   2.750854080   2.708213613
Cl       0.061543778   3.216663142   8.578415497
Cl       0.061443230   8.543268824   3.085762414
Cl       0.165776445   8.748213046   8.342998368
C        5.268108816   5.589763713   5.243224384
C        5.642255039   5.211321189   0.786942907
C        5.393735062   0.567856747   5.989055507
C        5.285277314   0.037582682   0.455533017
C        0.325700075   6.121784259   6.077325931
C        0.265227149   6.073703095   0.090570552
C       -0.290537012   0.008971619   5.473122465
C        0.479854252   0.013288872  -0.084383000
N       -0.397815211   4.738137482   0.074596815
N        0.028814056   4.953451735   5.197677371
N       -0.330891620  -0.054102902   1.162960802
N        1.026165097  -0.024668719   6.169399879
N        5.368883934   5.889457815  -0.510252614
N        6.176999958   5.657492815   6.424721470
N        6.060799727   0.069249124  -0.818425161
N        6.063472086  -0.714008124   5.633989651
H        5.875419195   5.590232352   4.332745588
H        4.726299924   5.227030123   1.386944030
H        4.762450221   0.875937040   5.149230835
H        4.218679817   0.034656913   0.210507955
H       -0.474654698   6.860491590   5.963799344
H       -0.008076087   6.608893250  -0.827078135
H       -0.106795476   0.207906095   4.413806708
H        0.329914910  -0.908069454  -0.658389087
H        5.546401783   0.923247593   1.046660003
H        6.165282434   1.321879906   6.179772586
H        6.443697627   5.748459396   1.304626840
H        4.610469324   6.464046405   5.262337292
H        1.533194894   0.121574934   0.191398104
H       -0.905248704   0.801997741   5.913682547
H        1.347732509   5.921854115   0.137410015
H        1.287888921   6.547810534   5.772048605
H        5.943532892   4.179674417   0.578839937
H        4.674147721   4.672406229   5.307416011
H        5.551002372  -0.872931205   1.005059102
H        4.787469822   0.405038942   6.887558420
H       -0.078103934   6.624692859   0.973588949
H        0.377478796   5.764572969   7.111544889
H        0.148511839   0.879129444  -0.670346034
H       -0.785027701  -0.959777985   5.597476545
H        1.527986938   0.880362167   6.045083412
H       -0.033528691  -0.840116298   1.775345645
H       -0.007639546   5.230706358   4.208581754
H       -0.105314858   4.188947627  -0.756183212
H        6.693215975  -0.589488168   4.816600419
H        5.857452344   0.926118980  -1.365767174
H        6.767660419   6.513736196   6.384882992
H        4.943735152   6.823324651  -0.364464653
H       -0.879338347   4.513539065   5.442992470
H       -1.420573112   4.843424009   0.035787172
H        1.644558400  -0.772700505   5.798305513
H       -1.326227121  -0.207832761   0.938969862
H        6.830161137   4.852397445   6.428482690
H        4.695577388   5.353013847  -1.077918421
H        5.360282724  -1.441338393   5.419780166
H        5.853109778  -0.752416081  -1.416152878
H       -0.242572524   0.826805492   1.705020147
H        0.919088370  -0.214299288   7.174710770
H       -0.174850668   4.186956970   0.923330291
H        0.771957045   4.232513638   5.284572350
H        7.072277607   0.053630494  -0.626322977
H        6.647373365  -1.051092516   6.412159841
H        6.243672565   5.979164302  -1.062108007
H        5.614641150   5.660715770   7.290044584
