CRYSTAL
PRIMVEC
11.2820 0 0
0 11.1747 0 
0 0 11.3552
PRIMCOORD
96 1
Pb       3.142712682   2.749075618   3.003235776
Pb       2.773494433   2.856429147   8.631033377
Pb       3.048421180   8.339297003   2.885119975
Pb       2.732277535   8.434910638   8.553048878
Pb       8.706730030   2.825639992   2.968726173
Pb       8.400049734   2.854532088   8.690573155
Pb       8.752902220   8.446653055   3.007659668
Pb       8.307487726   8.492104084   8.694475530
Cl       2.694052269   2.684057773   5.829413926
Cl       3.114910858   2.733367423   0.142221295
Cl       3.107177858   8.567086387   5.736522546
Cl       2.792013951   8.652679754   0.044062114
Cl       8.714361500   2.959770160   5.848734041
Cl       8.606655139   3.317366107   0.134406876
Cl       8.399473364   8.418041117   5.872736808
Cl       8.580672175   8.451736054   0.176549993
Cl       3.825950732  -0.041252588   2.765286166
Cl       2.029944516   0.074065308   8.745778027
Cl       2.697156016   5.534983473   2.647358145
Cl       3.211998020   5.641399608   8.998945707
Cl       8.247590319   0.051312144   3.241386428
Cl       9.137483669   0.089592000   8.745320269
Cl       9.116223668   5.634279807   3.422793826
Cl       7.687368765   5.658417844   8.366578408
Cl       5.926985525   3.437946076   2.987016290
Cl       5.577904957   2.371076905   8.811233940
Cl       5.922172917   7.962161940   3.151557249
Cl       5.510010448   9.148185918   8.669170348
Cl       0.276604859   2.640445142   2.874872337
Cl      -0.068722153   3.541357369   8.640810296
Cl       0.275970600   8.829041440   2.878619740
Cl      -0.142173126   7.988163831   8.494367859
C        5.032101700   5.375926683   5.898791216
C        5.622634098   6.046403691   0.378940153
C        5.862009142   0.448500909   6.024245690
C        6.349002460   0.249454433   0.311397425
C        0.717341337   5.792055949   5.557489071
C       -0.222276180   6.029545396   0.384461507
C        0.016504116  -0.214232900   5.445399019
C       -0.089612821   0.314412784   0.456869120
N        0.520633857   4.738671178   0.299883409
N       -0.611606744   5.759887027   6.231789938
N       -0.029689684  -0.982150930  -0.271457094
N       -0.017006325   1.007064560   6.299556862
N        5.702374980   4.754348830  -0.357419015
N        6.385596547   5.653020555   5.346983090
N        4.997787525   0.003957467  -0.263046786
N        5.799418307  -0.840889567   5.287447879
H        4.321954846   5.321298434   5.065353197
H        4.738267734   6.591620143   0.030091827
H        4.930930038   1.000161858   5.848904267
H        6.286441599   1.099035564   1.000557159
H        0.797282443   4.924817848   4.893575282
H        0.002546982   6.615349283  -0.514031361
H        0.944809752  -0.760439856   5.650147182
H       -0.964954956   0.873732378   0.105847304
H        7.045704569   0.461289389  -0.507912955
H        6.721285632   1.019745384   5.655536834
H        6.533387182   6.621743299   0.178335398
H        4.755084461   6.184911082   6.581722327
H        0.829057886   0.874849307   0.247157828
H       -0.017304470   0.097047732   4.396912962
H        0.101353394   6.558891273   1.287300469
H        1.500688732   5.764887314   6.323967139
H        5.540787089   5.826300953   1.446720314
H        5.063486081   4.423544986   6.439048907
H        6.668076396  -0.644557624   0.855566139
H        5.970052161   0.232190754   7.090881462
H       -1.292139077   5.806683290   0.434674977
H        0.784687743   6.715927598   4.972513520
H       -0.167711730   0.106797734   1.528130009
H       -0.853714174  -0.835867724   5.684493398
H        0.814839703   1.602240235   6.113586610
H        0.017293460  -0.824346415  -1.287322237
H       -0.701383743   4.921419140   6.826850241
H        1.537159001   4.893220637   0.308728744
H        5.710500676  -0.684400596   4.273755065
H        4.662597078   0.841897297  -0.757579678
H        6.383362964   6.522636209   4.777256896
H        5.741030585   4.908216577  -1.373752944
H       -1.359341552   5.749980296   5.512597783
H        0.276069642   4.237443105  -0.573644989
H       -0.002690614   0.756241779   7.297668773
H       -0.868826787  -1.564245159  -0.078083998
H        6.674156879   4.892853670   4.711207611
H        4.878814060   4.155111630  -0.166774173
H        4.977433481  -1.407925140   5.574086566
H        4.327728321  -0.215192406   0.494108438
H        0.816997192  -1.521972852  -0.004148229
H       -0.867724720   1.575711727   6.123699950
H        0.317606769   4.120380496   1.109221201
H       -0.717369256   6.583766681   6.852705703
H        5.023616492  -0.775722260  -0.949502060
H        6.650282184  -1.411320014   5.444350886
H        6.556143204   4.229339016  -0.088776178
H        7.071314874   5.742846669   6.115384230
