CRYSTAL
PRIMVEC
11.2820 0 0
0 11.1747 0 
0 0 11.3552
PRIMCOORD
96 1
Pb       2.984979699   2.633763984   3.164339727
Pb       2.792784163   2.843823889   8.774224565
Pb       2.885314578   8.331911662   3.059129084
Pb       2.873986403   8.514138903   8.642996240
Pb       8.709554187   2.762484385   2.919213032
Pb       8.410614199   2.906264125   8.588166949
Pb       8.523012983   8.376542076   2.741927436
Pb       8.417844211   8.418538491   8.432421211
Cl       2.056847277   2.641159274   6.001396501
Cl       3.525442833   2.884368716   0.303136500
Cl       2.663120978   8.917718205   5.851318752
Cl       2.731483939   8.135368234   0.156451344
Cl       9.191668558   2.714201918   5.745580489
Cl       7.786282366   2.777423567   0.066788665
Cl       8.262977316   8.512506100   5.577899607
Cl       8.647027501   7.859359502  -0.115283609
Cl       3.144889124  -0.105989439   2.539489411
Cl       2.347404070   0.064145361   9.252354153
Cl       3.122293512   5.459218357   3.122994573
Cl       2.648466836   5.656995432   8.514641746
Cl       8.270411652   0.014531820   2.829537160
Cl       8.746881175   0.095696292   8.324883163
Cl       8.483040051   5.571695018   2.908293249
Cl       8.216821606   5.645744401   7.865719656
Cl       5.897876594   2.933482282   3.701897899
Cl       5.586780797   2.436321601   8.060545291
Cl       5.703115264   8.018843802   2.844086752
Cl       5.646641748   9.119495736   8.610048851
Cl       0.244614547   2.367386329   2.466976754
Cl      -0.077326392   3.277516013   9.178436032
Cl       0.068400147   8.380277406   2.601527353
Cl      -0.016903505   8.242455218   8.370323693
C        5.124237662   5.920949645   6.243573626
C        5.616638205   5.918186974  -0.235531198
C        5.423389608  -0.283174370   5.568542188
C        5.772927845  -0.697703061   0.374189325
C        0.111206547   6.078496475   5.353271778
C        0.215348920   5.177439458   0.702793918
C       -0.120871027  -0.325822902   5.129901926
C       -0.634694803  -0.110298626  -0.247378013
N        0.194442497   6.242009878  -0.339839848
N       -0.015849685   5.282751457   6.607388640
N        0.556970531  -0.248570454   0.633748442
N        0.222590174   0.063787827   6.526526722
N        5.716921980   5.207402664   1.071463979
N        6.180408919   5.799806064   5.199311310
N        5.572852990   0.471441230  -0.529348479
N        6.746098657   0.394246182   5.679922992
H        4.146106492   5.857183339   5.755606939
H        6.493298575   5.658674887  -0.839803084
H        4.972339959  -0.008306549   4.608530868
H        6.682586959  -1.225715249   0.065745558
H        1.022930199   5.764054051   4.831817969
H       -0.594691964   4.471179225   0.497484691
H        0.808840689  -0.411661264   4.558142003
H       -0.533316364   0.816707752  -0.822899138
H        4.906153168  -1.360484381   0.286227442
H        4.793763756   0.044775474   6.401314431
H        5.593518344   6.995324006  -0.043382214
H        5.241046872   6.888151926   6.747231838
H       -1.532477510  -0.073962323   0.380719743
H       -0.761956963   0.451924370   4.704721591
H        0.083004355   5.651597111   1.680439392
H        0.172855824   7.138044199   5.623709628
H        4.691946405   5.600062896  -0.730757370
H        5.247924008   5.102186542   6.960759198
H        5.867240049  -0.333566574   1.400697025
H        5.584682483  -1.363495024   5.618544232
H        1.178135021   4.657174305   0.654793496
H       -0.769335619   5.891160997   4.728334833
H       -0.671209210  -0.970666278  -0.923973931
H       -0.644452091  -1.286809870   5.153372893
H        0.759917411   0.954844155   6.519898433
H        0.628787533   0.564643873   1.277243481
H        0.771729224   5.473181544   7.255821412
H       -0.698638761   6.774802379  -0.323030363
H        6.632480038   1.416720665   5.658767853
H        5.492081085   0.163488830  -1.509311520
H        6.079585777   6.535185232   4.472091040
H        6.576601227   5.470951020   1.585659097
H       -0.012350597   4.271303628   6.412328302
H        0.317510672   5.832415320  -1.274764543
H        0.806088038  -0.659429807   6.967735278
H        1.417460926  -0.292429702   0.066234793
H        6.131919504   4.876204242   4.722159659
H        5.742257288   4.188934596   0.924215258
H        7.354699806   0.136448480   4.880803765
H        6.359991193   1.146932704  -0.452923371
H        0.502711827  -1.106533390   1.215699085
H       -0.629358194   0.180926284   7.105603931
H        0.975191666   6.916752510  -0.189458747
H       -0.903474565   5.496548447   7.096462184
H        4.720373365   1.007859164  -0.280142117
H        7.240487308   0.149394325   6.554718539
H        4.902677731   5.413127722   1.681790230
H        7.114552921   5.901324967   5.620704318
