CRYSTAL
PRIMVEC
11.2820 0 0
0 11.1747 0 
0 0 11.3552
PRIMCOORD
96 1
Pb       2.936203345   2.827495124   2.983660223
Pb       2.879979382   2.847165029   8.665156807
Pb       2.954925387   8.397843718   3.060706069
Pb       2.831196842   8.381493388   8.636747737
Pb       8.531298002   2.786855663   2.805307184
Pb       8.637384386   2.745979808   8.562391291
Pb       8.488026417   8.306313039   2.876533214
Pb       8.517660726   8.299859175   8.523342572
Cl       2.273250727   3.079322326   5.752597730
Cl       3.427482912   2.374431325   0.098253560
Cl       2.316370700   8.028667937   5.793184090
Cl       3.026399893   8.876391313   0.149345071
Cl       9.063645701   2.533345565   5.641063278
Cl       7.906491836   3.014269216  -0.051810983
Cl       8.877169418   8.747218338   5.677251478
Cl       8.162641781   7.897142772  -0.006874021
Cl       2.647773539   0.033834516   3.331374724
Cl       2.735070043   0.032649259   8.652051997
Cl       2.439889090   5.625325247   2.693307544
Cl       2.987067376   5.634067721   9.450763139
Cl       8.271579003  -0.025741210   2.974191870
Cl       8.293239745  -0.059489320   8.699552223
Cl       8.870873306   5.554829840   3.451622646
Cl       8.005853568   5.512706746   8.205078668
Cl       5.779458150   2.837532719   3.721239688
Cl       5.771537027   2.507324673   8.156053661
Cl       5.755826930   7.954342726   3.558047455
Cl       5.674514063   8.461810184   8.555823626
Cl       0.095711320   2.433341619   2.551555387
Cl       0.142759626   2.624418543   9.268347139
Cl       0.080922981   8.605830668   2.686220367
Cl       0.030434237   8.318085407   9.020929482
C        4.929504837   5.582045039   6.154728201
C        5.385714379   5.604582203   0.783738972
C        5.329676202  -0.352686677   5.824552744
C        6.120199987  -0.115576403   0.377825033
C       -0.230429260   5.622185219   6.561864253
C       -0.376104287   5.360999161   0.320497245
C        0.219743936  -0.033712698   6.395950635
C       -0.584200948  -0.092205255   0.007167343
N        0.510813059   6.554796346   0.247037621
N        0.335239187   5.533386784   5.190510840
N        0.851470714   0.210380163   0.266205833
N       -0.208684613   0.044163040   4.971829136
N        5.965829221   5.546963146  -0.585406559
N        6.263373943   5.437617610   5.510956861
N        5.453918893  -0.018575336  -0.948981663
N        6.670075339   0.296861652   5.824211241
H        4.161344389   5.608589218   5.374524436
H        4.723492206   4.742372888   0.911412763
H        4.789989605  -0.032240555   4.927046412
H        5.732104306  -1.001135506   0.893781836
H       -0.864618547   4.746616402   6.726014249
H       -0.196771362   4.732880901  -0.559276239
H       -0.674675979  -0.074569701   7.027533584
H       -0.671564589  -0.548399396  -0.982910599
H        5.894869828   0.793030040   0.945696850
H        4.788617468  -0.034203005   6.722928921
H        4.816721612   6.534980142   0.880615894
H        4.920640476   6.514771016   6.728037094
H       -1.141925176   0.850296060   0.041145630
H        0.811588002   0.857129614   6.624442478
H       -1.416024313   5.704820303   0.344378409
H       -0.820466246   6.541183866   6.630482995
H        6.202539550   5.583290503   1.513691191
H        4.774951106   4.722444139   6.813998928
H        7.198102732  -0.208883247   0.219221330
H        5.467816712  -1.438563082   5.821009351
H       -0.132876005   4.800957914   1.229593853
H        0.594669783   5.645982258   7.282806652
H       -0.938040930  -0.778547429   0.783319726
H        0.820776760  -0.938638521   6.525729715
H       -0.775640255   0.895666832   4.823996686
H        1.221116321   0.847334770  -0.454496454
H       -0.422337523   5.505411414   4.483768571
H        0.307651601   7.126571015  -0.599496149
H        6.575755433   1.320975452   5.808311330
H        4.434397141   0.088766692  -0.851716797
H        6.426588527   6.228507543   4.863120956
H        5.208505273   5.579721128  -1.289677281
H        0.924815365   4.680784094   5.112091223
H        1.499585011   6.279475433   0.202118870
H       -0.789888421  -0.769908058   4.725384010
H        1.447014942  -0.639958407   0.268434047
H        6.297568631   4.560564711   4.953913169
H        6.519368515   4.678068177  -0.702612603
H        7.224867842   0.033137803   4.988298499
H        5.622078475  -0.866744470  -1.523973250
H        0.954722401   0.690051034   1.175388976
H        0.611094600   0.074321100   4.337601850
H        0.391402240   7.168912012   1.077238193
H        0.944447683   6.348604029   5.008563626
H        5.785658656   0.796199635  -1.493118742
H        7.215037955   0.054476749   6.671438678
H        6.608402782   6.345022961  -0.733712161
H        7.010659244   5.420141992   6.230651742
