CRYSTAL
PRIMVEC
11.2820 0 0
0 11.1747 0 
0 0 11.3552
PRIMCOORD
96 1
Pb       2.913013644   2.840593355   2.907688220
Pb       3.011569145   2.808112473   8.622607919
Pb       2.795888985   8.480209912   2.892792797
Pb       2.976707669   8.301271706   8.447997060
Pb       8.478705138   2.759039088   2.969484897
Pb       8.524338668   2.757996168   8.697249199
Pb       8.514326003   8.449550488   2.929037146
Pb       8.562435912   8.267375019   8.610901756
Cl       2.799462240   2.279598748   5.772088191
Cl       2.779151864   3.412273855   0.095293057
Cl       2.882085674   9.141167400   5.683828446
Cl       3.047879783   8.249763414  -0.001224437
Cl       8.740650432   3.115786129   5.848024421
Cl       8.626428209   2.612380132   0.178955701
Cl       8.257185185   8.159289065   5.767717464
Cl       8.607603763   8.685678965   0.090362530
Cl       3.541842063   0.043767326   2.485058865
Cl       2.816358606  -0.096287875   9.025383167
Cl       2.513028339   5.632540239   3.351857222
Cl       2.403016669   5.483062102   8.103544949
Cl       7.554535404   0.012831431   3.056964490
Cl       8.858314553  -0.091953371   8.608713832
Cl       8.881373072   5.604834838   2.720345616
Cl       9.100616409   5.487657650   8.987397967
Cl       5.730811943   3.561305827   3.021958739
Cl       5.777542239   3.345764700   8.220019510
Cl       5.699005012   7.894614957   2.878704591
Cl       5.773670095   8.317363351   8.900389650
Cl       0.091919086   2.781185677   2.955924582
Cl       0.136478031   2.602819692   8.616904056
Cl       0.062013099   9.008176810   2.520662125
Cl       0.154795340   8.518373134   8.461494217
C        5.098966855   5.924616061   6.005304139
C        6.272325875   5.557635940  -0.125833742
C        6.117972624   0.091787370   6.469399554
C        5.760140192   0.326174505  -0.394090119
C       -0.127351733   6.160413847   5.699655338
C        0.477927773   6.135242257   0.119151219
C       -0.471805020  -0.000438839   5.497301032
C        0.261527558   0.594913139   0.452808210
N       -0.393291491   4.936269431   0.259631929
N        0.291071518   4.732070127   5.752510199
N        0.086068311  -0.528637482  -0.508982588
N        0.406812770   0.030926515   6.698880785
N        4.974660717   5.719151952   0.590286260
N        6.433988382   5.520437807   5.482516144
N        5.734939215  -0.982944368   0.315096793
N        5.220297553   0.153589403   5.282231481
H        4.724718054   6.749398891   5.389267117
H        6.889082588   6.443647324   0.061768815
H        5.501000807   0.056217120   7.374872768
H        5.846826707   0.131114907  -1.468215601
H        0.768801407   6.779113909   5.580825075
H        1.055637617   6.038910811  -0.806169287
H       -0.206073416  -0.874163645   4.891108320
H        0.424127683   1.511935897  -0.122406732
H        6.623629902   0.897518696  -0.035338524
H        6.751925622   0.985157640   6.473562751
H        6.074914696   5.451093681  -1.197603547
H        5.217333300   6.236060064   7.048168905
H        1.125172959   0.373333256   1.088897704
H       -0.309731737   0.916162083   4.918202714
H        1.142699087   6.180393936   0.987330575
H       -0.632014402   6.403071525   6.639471665
H        6.772989839   4.662059211   0.258636044
H        4.422626610   5.066515931   5.945139861
H        4.825495397   0.853950363  -0.173699047
H        6.733440012  -0.811253161   6.393398705
H       -0.165186384   7.021525303   0.082519320
H       -0.804243647   6.289046128   4.849107179
H       -0.643488158   0.680606061   1.058678087
H       -1.512198737  -0.064960164   5.833914996
H        1.398324421   0.080224567   6.431849612
H        0.926121278  -0.626714069  -1.108030590
H        0.939858144   4.590885414   6.545237513
H        0.168827317   4.081979257   0.355377472
H        4.609579241   0.990313408   5.312561283
H        6.608976693  -1.517414293   0.142891413
H        7.090874586   6.327741379   5.483369555
H        4.463257304   6.570204697   0.284966814
H        0.770992330   4.463569063   4.882071278
H       -1.010558866   4.848179504  -0.569148303
H        0.283233078  -0.825640022   7.277098795
H       -0.727778531  -0.380276775  -1.134379147
H        6.346802103   5.149827235   4.518567189
H        5.131002670   5.815493743   1.603843662
H        4.573209844  -0.657985729   5.260977786
H        4.931892701  -1.564661185   0.017395683
H       -0.068468350  -1.409406381   0.000883318
H        0.209967929   0.853802765   7.305188104
H       -1.003249129   5.019429489   1.096971455
H       -0.533251256   4.111677054   5.868066352
H        5.647239392  -0.838726289   1.331318989
H        5.777233459   0.157875406   4.405850370
H        4.342797304   4.908307353   0.435052035
H        6.846759911   4.764451830   6.049970982
