CRYSTAL
PRIMVEC
11.2820 0 0
0 11.1747 0 
0 0 11.3552
PRIMCOORD
96 1
Pb       2.876081252   2.903566555   2.896072707
Pb       2.916789637   2.827862773   8.715241832
Pb       2.805327195   8.518904018   2.758783539
Pb       2.953759155   8.335808826   8.473445464
Pb       8.452844629   2.741628446   2.994667185
Pb       8.626976820   2.715302876   8.835390910
Pb       8.404200425   8.415997529   2.962133948
Pb       8.622022224   8.207410604   8.677708181
Cl       3.002605028   2.750596415   5.826822650
Cl       2.241895336   3.080622964   0.142934411
Cl       2.972333119   8.636757712   5.635172622
Cl       2.667152076   8.840183057  -0.086503859
Cl       8.060639722   2.531431363   5.957238707
Cl       8.880476480   3.380836672   0.251640563
Cl       8.075933971   8.568898536   5.884757422
Cl       8.526500295   7.733043940   0.178258719
Cl       2.633976113   0.099870005   2.991055083
Cl       3.719978607  -0.039031693   8.442601136
Cl       2.454020417   5.686325678   3.196806160
Cl       2.406304794   5.543873031   8.304810947
Cl       8.380295439  -0.022208365   2.160767478
Cl       8.086056729  -0.188384181   9.236302208
Cl       8.591632720   5.579286864   3.441393546
Cl       9.144658292   5.414112909   8.197002105
Cl       5.709300578   3.272312395   2.513339819
Cl       5.811647115   3.501455191   8.882674425
Cl       5.640520745   8.474618593   2.466422497
Cl       5.821290288   7.709981444   8.782822288
Cl       0.016441247   2.876564955   3.377637064
Cl       0.122992953   2.279049175   8.202447224
Cl      -0.044024635   8.468152368   2.644496671
Cl       0.156220435   9.104837375   8.441696864
C        5.362570213   5.687686456   5.348123078
C        4.777173920   5.815987261   0.320727385
C        5.560642371   0.101927866   4.971643162
C        5.279951476   0.589411388   0.261653981
C        0.014377693   6.359508672   5.765846742
C        0.247440601   6.024595733  -0.149671817
C       -0.206843107  -0.096895705   5.339849960
C        0.231403217   0.430447839   0.216994340
N       -0.055422373   5.422404819   1.178055469
N        0.287165491   4.901376684   5.906702926
N       -0.503003993  -0.853788878   0.024408208
N        1.110579585   0.061381522   6.017744408
N        6.184973282   5.391474380   0.086513302
N        6.566098407   5.524604828   6.216316131
N        5.624609261  -0.794494513  -0.168586072
N        6.161674172  -0.024343035   6.330685393
H        5.672864287   5.562896264   4.305273869
H        4.557554391   6.676447097  -0.317690660
H        6.364158653   0.074876133   4.225337110
H        5.222805034   1.225480631  -0.628917303
H        0.662013682   6.757709065   4.979500036
H        1.169021428   5.572476207  -0.529026344
H       -0.036651136  -0.140812435   4.259252300
H        1.297749141   0.202211608   0.304889160
H        6.063743228   0.946589341   0.935978549
H        5.019664448   1.052738605   4.921300026
H        4.664915073   6.081988140   1.375343146
H        4.945673221   6.687549002   5.513008168
H       -0.128447890   0.908105240   1.134670177
H       -0.833748065   0.765134458   5.596758764
H        0.375945660   7.103453166  -0.019424997
H        0.232549202   6.842682820   6.723775971
H        4.118182128   4.975194074   0.076483606
H        4.629003243   4.920468607   5.620002658
H        4.314719697   0.562211729   0.780250259
H        4.869800727  -0.731702069   4.814609255
H       -0.584865997   5.809115756  -0.828509194
H       -1.038864248   6.490138251   5.499577391
H        0.049379781   1.075185864  -0.649569353
H       -0.668001377  -1.024384470   5.699397281
H        1.596762920   0.933939751   5.739538034
H       -0.324430472  -1.501872818   0.817609347
H        1.271256816   4.732367866   6.163084308
H        0.717414107   5.584591929   1.856291313
H        6.801659054   0.775270338   6.495188819
H        6.486839257  -0.781103773  -0.747347802
H        7.263042795   6.257175616   6.012034902
H        6.854582313   6.180391771   0.141300582
H        0.100352353   4.371226436   5.031648091
H       -0.183961934   4.405144553   1.095195782
H        1.743357818  -0.737887532   5.807677094
H       -0.206109733  -1.312584915  -0.859714095
H        7.021176870   4.602354535   6.081848217
H        6.265508091   4.940921212  -0.845554550
H        6.717772807  -0.896293731   6.399289540
H        4.862016413  -1.191896911  -0.733204768
H       -1.517992602  -0.693575445  -0.019865734
H        0.980417360   0.100508261   7.037205216
H       -0.921351869   5.803184206   1.586349219
H       -0.286669896   4.497741224   6.662025887
H        5.761716553  -1.417690535   0.651520922
H        5.424631322  -0.030591006   7.066688109
H        6.451550795   4.680958637   0.788773775
H        6.320505891   5.602938057   7.213614920
