CRYSTAL
PRIMVEC
11.2820 0 0
0 11.1747 0 
0 0 11.3552
PRIMCOORD
96 1
Pb       3.096927069   2.758894864   2.880763881
Pb       3.052782003   2.867909237   8.602456514
Pb       2.841983475   8.305308134   2.910283606
Pb       2.797688493   8.432648087   8.585680476
Pb       8.663527128   2.633062474   3.089462321
Pb       8.539663465   2.859840516   8.757974574
Pb       8.540807373   8.256121700   3.011653970
Pb       8.393721900   8.424973200   8.649073788
Cl       3.045033486   2.810507912   5.734721465
Cl       2.818082666   3.202747464   0.084025201
Cl       2.959817786   8.299095446   5.756548817
Cl       2.858909153   8.406805162   0.079836731
Cl       8.791518597   2.270366986   5.957417973
Cl       8.894240586   3.107369642   0.279663800
Cl       8.780688962   8.804427496   5.827279544
Cl       7.851569419   8.148262506   0.166966525
Cl       2.500499541  -0.047159947   2.766017081
Cl       2.597986711   0.062521912   8.242575426
Cl       3.675204457   5.581138357   2.810218674
Cl       3.471319968   5.669291547   8.684981246
Cl       9.129600584  -0.173192473   2.409696158
Cl       8.845607347   0.059452299   9.241127441
Cl       8.259243848   5.437061193   3.670541496
Cl       8.318482721   5.651044603   7.973012065
Cl       5.884299004   1.922655098   2.860288061
Cl       5.809485794   2.321579700   9.069825904
Cl       5.683220180   8.830758691   3.218208040
Cl       5.603671646   8.734885428   8.354915242
Cl       0.239118680   3.196806244   3.153519164
Cl       0.161062414   3.066406092   8.477471861
Cl       0.024417182   7.695970566   2.477226297
Cl      -0.054545139   8.561972490   8.746425591
C        5.409361758   5.333221229   5.814470059
C        6.236184885   5.055963221   0.111051736
C        5.891087994   0.204024614   6.055358212
C        5.066530846  -0.108048037   0.028607450
C        0.466911543   6.003117044   5.915097459
C       -0.017254238   5.985356874  -0.574052375
C        0.381966411  -0.014862957   5.344152864
C        0.480279607   0.599986773  -0.046605562
N        0.172336965   5.022426605   0.544325583
N       -0.414331306   4.805376493   5.845363429
N        0.057476357  -0.812048939   0.182019381
N       -0.287423284   0.059263003   6.672374302
N        5.190954123   6.115320230   0.044769913
N        6.009272542   6.698199829   5.786800896
N        6.526857039   0.042767155   0.280726692
N        4.578066900  -0.029735005   5.391866541
H        5.758573521   4.789352075   4.931266476
H        6.916786311   5.185156099  -0.737294555
H        6.568483161  -0.618585323   5.799398345
H        4.928762689  -0.652945104  -0.910890467
H        1.504860897   5.663963300   6.006690907
H       -0.041047158   5.428569723  -1.516873989
H        1.119279061  -0.824320094   5.371654773
H        1.373758598   0.597803411  -0.678601756
H        4.622581624   0.890677921  -0.042490473
H        5.733805072   0.250377096   7.137420125
H        5.745566707   4.078494889   0.058685369
H        4.321723539   5.432455083   5.798406619
H        0.699360852   1.052432936   0.925035825
H        0.878955904   0.941721460   5.150862922
H        0.814593382   6.695988096  -0.562542006
H        0.182682144   6.602999693   6.787600329
H        6.786823098   5.165444637   1.051875618
H        5.735811592   4.837692859   6.735004228
H        4.628812973  -0.659494552   0.865612014
H        6.293906589   1.151747694   5.686401269
H       -0.961737848   6.518754670  -0.415324795
H        0.338526239   6.589268602   4.997856384
H       -0.339776397   1.128019908  -0.542879426
H       -0.375796980  -0.209847602   4.576833597
H        0.408806941   0.238234098   7.415369242
H        0.826513997  -1.370900820   0.580173283
H       -0.282978448   4.198791410   6.681832441
H        1.051120183   4.477097990   0.435299940
H        4.128774882  -0.911255657   5.699433799
H        6.994856378   0.534782832  -0.495354361
H        5.738056951   7.225429710   4.936897393
H        4.611725778   6.022878523  -0.814560275
H       -0.197851226   4.238289515   4.999382758
H       -0.613319499   4.341484671   0.581510735
H       -0.768473173  -0.823435881   6.891143187
H       -0.218583681  -1.267738910  -0.705636951
H        7.036909664   6.638344785   5.803637274
H        5.633425073   7.045702128   0.048917025
H        4.693220493  -0.089189503   4.370760027
H        6.991480938  -0.879067457   0.375090994
H       -0.740113826  -0.828458916   0.847804233
H       -0.999608094   0.814204463   6.669584724
H        0.205542717   5.528261643   1.443300988
H       -1.408278929   5.065800369   5.798746185
H        6.673921996   0.576126810   1.155169225
H        3.930704987   0.757578821   5.590635977
H        4.561420073   6.043012983   0.870102133
H        5.718768368   7.261298948   6.608588548
