CRYSTAL
PRIMVEC
11.2820 0 0
0 11.1747 0 
0 0 11.3552
PRIMCOORD
96 1
Pb       2.911289276   2.730113092   3.048405886
Pb       3.061449608   2.880160845   8.701256958
Pb       2.687488977   8.319600180   2.682557720
Pb       2.794427561   8.535943441   8.450792237
Pb       8.566817178   2.714802269   3.124539648
Pb       8.665721601   2.839450348   8.748464673
Pb       8.290831761   8.344117410   2.821124792
Pb       8.506457792   8.501327474   8.534428091
Cl       2.583426258   3.029367897   5.865245567
Cl       3.374566432   2.325360369   0.181226840
Cl       3.090301979   8.591053512   5.571181187
Cl       2.384061288   9.021522665  -0.061489693
Cl       8.884115012   3.301768672   5.888541642
Cl       8.542068941   2.936488356   0.235052819
Cl       7.911966126   8.344351757   5.690509422
Cl       8.615170267   8.364023761   0.013228343
Cl       2.221823934  -0.064400048   3.046490702
Cl       3.185154920   0.128499236   8.452808146
Cl       3.272222857   5.493615781   2.459603942
Cl       2.766248860   5.720533830   8.688922799
Cl       8.800112148  -0.090740505   3.445932713
Cl       8.452715095   0.077499298   8.470775758
Cl       7.913453452   5.511142634   2.829356835
Cl       8.971758032   5.668391100   8.758819047
Cl       5.753086063   2.249447557   3.227944658
Cl       5.878439548   3.416733753   8.719148628
Cl       5.480885223   8.965047891   2.418323268
Cl       5.655027178   8.435764936   8.704054784
Cl       0.104305446   3.118845573   2.555664642
Cl       0.228116416   2.656205044   9.022502452
Cl      -0.172026427   7.936866635   2.924874118
Cl       0.001788682   8.474235968   7.855732630
C        5.305585544   5.468396122   5.467801381
C        5.776324733   6.025493464  -0.256372829
C        5.773304731   0.582852479   6.218266496
C        6.340888355   0.414483320  -0.092634726
C        0.252315250   5.801152694   5.434283785
C        0.424788630   5.682207618  -0.118377235
C        0.115958060   0.503479224   6.117037283
C       -0.565639300  -0.250338658   0.217668481
N       -0.885306938   5.666500913   0.593714485
N        0.244309548   5.162914990   6.779083968
N        0.525757587   0.761731009   0.269910346
N        0.056201486  -0.750647269   5.315172730
N        5.697386507   4.761928830   0.530647444
N        6.537625833   5.529692134   6.306612917
N        5.209457623  -0.533577489  -0.279869513
N        5.606181332  -0.497660274   5.203383458
H        5.592817098   5.604754036   4.420109391
H        6.701153315   6.018801774  -0.842785297
H        4.932737884   1.279324171   6.126354814
H        7.271432492  -0.161623213  -0.042818514
H        1.127774795   5.439727639   4.883018483
H        1.091748995   4.958741391   0.363525070
H        0.100040518   1.356818581   5.430305030
H       -0.407364131  -0.886303612  -0.658954552
H        6.175346571   0.971322247   0.836235280
H        6.719993355   1.097495972   6.020024360
H        5.775648889   6.868459184   0.444310711
H        4.625520641   6.268284897   5.783482485
H       -1.523131495   0.276084465   0.142478935
H        1.045895234   0.506713709   6.695771847
H        0.846729624   6.692040603  -0.051797535
H        0.303464972   6.884475314   5.568782902
H        4.909676666   6.076843785  -0.923749944
H        4.830083704   4.491798019   5.607396544
H        6.366913739   1.099623611  -0.945709820
H        5.786804567   0.125354895   7.211503098
H        0.252572341   5.407998945  -1.162569809
H       -0.667341585   5.522226895   4.909048331
H       -0.525488546  -0.857062372   1.128503648
H       -0.749237259   0.529028781   6.787980097
H        0.861917498  -0.794397203   4.665474963
H        0.539246085   1.341471428  -0.592413454
H        1.086651644   5.423605725   7.333925629
H       -0.756824375   5.873248762   1.593737934
H        5.615322994  -0.102592511   4.251963675
H        5.120953906  -1.149673943   0.552507664
H        6.986214687   6.464388070   6.225022673
H        6.507128854   4.684919925   1.168630661
H        0.246627018   4.139044469   6.700012375
H       -1.363542853   4.750411319   0.509652202
H       -0.804245492  -0.765607529   4.737143670
H        1.440377992   0.301357276   0.370830599
H        7.241842064   4.822812460   6.017056841
H        5.675938895   3.941520279  -0.089064209
H        4.720003638  -1.028116502   5.330824003
H        5.346493107  -1.145340449  -1.108683970
H        0.409097505   1.412502828   1.070299530
H        0.069687133  -1.572027428   5.947780953
H       -1.518054779   6.398410729   0.219713635
H       -0.591316994   5.435164004   7.331913802
H        4.322788807  -0.025575686  -0.404938035
H        6.376730000  -1.188289279   5.271429265
H        4.838984685   4.768980476   1.116982147
H        6.324847011   5.330117195   7.295164851
