CRYSTAL
PRIMVEC
11.2820 0 0
0 11.1747 0 
0 0 11.3552
PRIMCOORD
96 1
Pb       2.897261743   2.836634821   2.702122760
Pb       2.662405960   2.827360285   8.471566354
Pb       3.079910355   8.379738642   2.778593929
Pb       2.912276961   8.383416125   8.387512724
Pb       8.540252559   2.935917034   3.218796980
Pb       8.279334582   2.940074223   8.828479332
Pb       8.752587892   8.485268662   3.125618732
Pb       8.555660286   8.609194982   8.837623540
Cl       2.626447127   2.475481325   5.564736901
Cl       2.659657274   3.201390632  -0.090982541
Cl       2.814174180   8.980578530   5.562148922
Cl       3.256066913   8.052053379  -0.100199197
Cl       8.521521885   3.558236984   6.040662282
Cl       8.326644330   2.459022220   0.370702305
Cl       8.759533558   8.092120085   6.006249732
Cl       8.390827014   9.101036956   0.338609897
Cl       3.094180834   0.025404813   2.204959644
Cl       2.668938809   0.014063717   8.833979696
Cl       3.080404643   5.612613776   3.277060237
Cl       2.623234614   5.626825939   7.680917390
Cl       8.635841845   0.114427107   3.777436412
Cl       8.220640498   0.181917051   8.228724444
Cl       8.549695105   5.721899514   2.381239639
Cl       8.541432682   5.789414942   9.484953635
Cl       5.731127381   2.744395400   3.120903968
Cl       5.489514216   3.203382118   8.505895988
Cl       5.897357897   8.669799977   3.002348755
Cl       5.759260895   8.384638012   8.474660517
Cl       0.071951036   2.734060000   2.836011575
Cl      -0.156681967   3.143291010   8.696633744
Cl       0.248219470   8.791984946   2.756993805
Cl       0.101567855   8.384541468   8.801894396
C        5.871045373   5.969027670   5.577655319
C        5.523261779   5.209852478   0.360790588
C        5.371559685   0.345197988   6.011317221
C        5.401665666   0.202643983  -0.443410136
C        0.133566289   5.697953497   5.144212488
C        0.361585395   5.901859750   0.324668047
C       -0.239211435   0.110474414   6.309105547
C       -0.111883052   0.366842255  -0.136420496
N       -0.397543103   4.624341373   0.221677990
N       -0.393534307   5.731138351   6.536915370
N        0.734435078  -0.855472450  -0.037718614
N        0.562297235   0.107679836   5.051012937
N        6.155177650   6.541556603   0.134525890
N        5.128324980   4.683695407   5.681575074
N        6.120832880   0.179770327   0.863396280
N        6.185798694  -0.895087017   5.861728012
H        6.944303372   5.754299726   5.582070964
H        5.082182059   4.868191761  -0.581300469
H        5.502878873   0.958835364   5.113331704
H        6.143425396   0.232017373  -1.250336947
H        0.769832372   6.576048867   4.989367016
H        0.079452709   6.540687810  -0.520144776
H       -0.895902475  -0.765635657   6.308153167
H        0.124821580   0.880114191  -1.074619485
H        4.759797109   1.090107048  -0.474788347
H        5.723040171   0.882805946   6.898743408
H        4.747139065   5.316959689   1.126271973
H        5.612819785   6.591298504   6.441854818
H        0.109233082   1.015717233   0.718269043
H       -0.840214086   1.025297218   6.341705997
H        1.432182595   5.675939139   0.288993061
H       -0.714380922   5.706056271   4.448411841
H        6.299146217   4.511254867   0.693367902
H        5.580295996   6.463794486   4.645108534
H        4.788494492  -0.701491521  -0.521191964
H        4.321269106   0.060784310   6.125442038
H        0.100305872   6.386778281   1.271792743
H        0.724887434   4.785133509   5.014613886
H       -1.164419015   0.065114984  -0.115496064
H        0.453767388   0.071966579   7.157837720
H       -0.054036672   0.123328776   4.227913549
H        1.733912317  -0.615820618  -0.048795741
H       -0.959180154   6.585384863   6.679860208
H       -0.200122049   4.137096231  -0.674758017
H        7.186027269  -0.666382855   5.776201619
H        6.723605107   1.019136596   0.953601796
H        5.355514842   4.185925076   6.566619968
H        5.441375619   7.229119701  -0.163900659
H        0.394377378   5.709312611   7.209327561
H       -1.410306760   4.801175774   0.263877673
H        1.170751228  -0.730881497   5.006714717
H        0.558128445  -1.495026797  -0.837301567
H        5.346456344   4.055583751   4.885372214
H        6.897469791   6.459405015  -0.589867904
H        5.921265848  -1.424563995   5.011691737
H        6.745062868  -0.645866621   0.919661801
H        0.543612275  -1.370134988   0.844276067
H        1.188257584   0.939277002   5.030599781
H       -0.161356225   3.979476181   0.999489057
H       -1.011447114   4.918181186   6.703519540
H        5.441939822   0.150242317   1.639708331
H        6.071711494  -1.517913676   6.685488289
H        6.605124282   6.889470023   0.991005831
H        4.112141980   4.846614287   5.677445336
