CRYSTAL
PRIMVEC
11.2820 0 0
0 11.1747 0 
0 0 11.3552
PRIMCOORD
96 1
Pb       2.937845941   2.934495842   2.828611108
Pb       3.044085535   2.933401366   8.566977874
Pb       2.765799341   8.420066496   2.848751920
Pb       2.868169463   8.456916914   8.615454504
Pb       8.594768879   2.704497732   3.071114917
Pb       8.621673783   2.693143146   8.676056183
Pb       8.303946768   8.290669577   3.131875692
Pb       8.393730433   8.327901731   8.691226153
Cl       3.047304682   2.873163452   5.696186213
Cl       3.327627312   2.911162933   0.044161624
Cl       2.556230382   8.674269625   5.743624361
Cl       2.806252205   8.789015620   0.086020217
Cl       8.711460167   3.442733603   5.892105570
Cl       8.383399810   2.486312462   0.215758671
Cl       8.805698573   7.790648314   5.915565715
Cl       8.394286107   8.560637354   0.262620549
Cl       2.258068253   0.092390439   2.929810418
Cl       2.850689927   0.108225341   8.574417586
Cl       3.729875001   5.660828613   2.795338285
Cl       2.714828458   5.670440322   8.388399184
Cl       8.979044301  -0.120351580   3.339680477
Cl       8.702555874  -0.087724674   8.140722606
Cl       7.790330944   5.448064520   2.647710657
Cl       8.658285860   5.501260833   9.372236738
Cl       5.724237135   2.174669200   3.083382754
Cl       5.845183975   3.217390871   8.446922639
Cl       5.505144958   9.230021187   3.081798894
Cl       5.641879282   8.552893047   8.220623871
Cl       0.065558769   3.231008236   2.455966513
Cl       0.177497907   2.887538059   8.965441982
Cl      -0.157901026   7.954864168   2.845396664
Cl      -0.010800677   8.386495536   8.578765536
C        5.513594848   5.993078278   6.017737217
C        5.426026871   6.177926036  -0.427979502
C        5.913050675   0.217758895   6.190931842
C        5.628705569  -0.019829541  -0.572252096
C        0.440888674   5.493733871   5.658594452
C        0.698376087   5.818047633  -0.044125759
C        0.134607074   0.595512023   5.991251976
C       -0.250108556  -0.328864971  -0.012175510
N       -0.646577597   5.729627691   0.591292551
N       -0.257009663   5.567048433   6.974079637
N        0.988751817   0.506392825  -0.030335323
N       -0.216664134  -0.827480390   5.724048672
N        5.940734657   4.872627252   0.074191705
N        5.744047172   4.709439760   5.293977769
N        6.542770077  -0.061517889   0.603630738
N        4.627957595   0.037487033   5.460117862
H        6.375073696   6.648928308   5.853809049
H        5.071037027   6.039280522  -1.454542911
H        5.692931499   0.469680745   7.232746134
H        6.236295910  -0.033951439  -1.484946462
H        1.518338288   5.567923715   5.836270353
H        1.459000386   5.806882923   0.745688658
H        0.644627511   0.656108592   6.958507606
H       -0.796688883  -0.171751495  -0.949360601
H        5.031859799   0.897029116  -0.523148586
H        6.472787442   1.026161598   5.707519950
H        6.244567686   6.905509154  -0.399894742
H        5.404909649   5.771433680   7.083421818
H       -0.857361213  -0.031911422   0.850287024
H       -0.790526020   1.182157440   6.012333444
H        0.755965108   6.750977314  -0.613876188
H        0.091658661   6.325732628   5.036427469
H        4.606255779   6.502394025   0.221644180
H        4.597848116   6.454321305   5.631688394
H        4.974733529  -0.897399321  -0.543716847
H        6.477180279  -0.718527891   6.146934632
H        0.829334954   4.958049906  -0.708683949
H        0.190766215   4.538300663   5.183602845
H        0.049114916  -1.377493265   0.080666746
H        0.792874200   0.941195655   5.186591217
H       -0.814705374  -1.206504939   6.471733773
H        0.766084332   1.503393374  -0.142381282
H       -0.070055693   6.468413059   7.460356802
H       -0.783546507   6.534181202   1.230573923
H        4.068144680   0.910145395   5.470814393
H        7.145508941   0.785589824   0.618499858
H        6.625302374   4.259204534   5.605387686
H        6.656688412   4.499560066  -0.563712802
H        0.031699852   4.801372498   7.607620303
H       -0.697439188   4.867889296   1.166061328
H        0.635387999  -1.421744260   5.669935446
H        1.612435025   0.244188816  -0.816429715
H        5.813771667   4.865557483   4.278461493
H        5.175612524   4.175918132   0.139611342
H        4.050049526  -0.720408968   5.863937294
H        7.163722536  -0.897498874   0.550362229
H        1.514095340   0.383695197   0.859889346
H       -0.741927773  -0.896687634   4.835155364
H       -1.396072304   5.712692072  -0.126223182
H       -1.274195579   5.496199766   6.840441012
H        6.027752715  -0.119419244   1.493421214
H        4.809275339  -0.230566471   4.477873504
H        6.386182722   4.983257600   1.006146346
H        4.961998237   4.049006924   5.456354750
