CRYSTAL
PRIMVEC
11.2820 0 0
0 11.1747 0 
0 0 11.3552
PRIMCOORD
96 1
Pb       3.146508568   2.929604457   2.770403970
Pb       2.733488653   2.733982572   8.435826715
Pb       3.039129166   8.461746591   2.862862014
Pb       2.681305936   8.428837974   8.605896271
Pb       8.849676517   2.801739816   3.125003843
Pb       8.430377780   2.733365984   8.719115692
Pb       8.638033379   8.427842192   3.050073105
Pb       8.378044969   8.381470691   8.685308382
Cl       3.246059896   2.632673149   5.572900665
Cl       2.971873807   3.185801158  -0.109615440
Cl       2.734832002   8.580821490   5.719087578
Cl       3.153922682   7.956364726   0.061269947
Cl       8.331428849   2.392418941   5.900144581
Cl       8.907947236   2.736300625   0.263819383
Cl       8.527752636   8.725627818   5.847716931
Cl       8.435261700   8.308466286   0.207599928
Cl       2.282748171   0.133237293   2.763645256
Cl       2.730741983   0.020211915   9.125776156
Cl       3.574265105   5.701167401   3.502999876
Cl       2.510599791   5.585064989   8.097131271
Cl       9.458571195   0.004756027   2.783700966
Cl       8.083388017  -0.023474912   9.172343653
Cl       8.418432606   5.593928311   2.976466220
Cl       8.308851205   5.555695769   8.973406273
Cl       6.043681671   2.365550839   2.753136613
Cl       5.565942832   3.073819433   8.536055928
Cl       5.840990353   9.299034041   3.117358552
Cl       5.515554646   7.963787988   8.450602390
Cl       0.387512309   3.582408494   2.896710674
Cl      -0.058811878   2.621922011   8.700106185
Cl       0.210566312   7.816555125   2.987163155
Cl      -0.115308770   8.498344411   8.336623591
C        6.438452141   5.582307099   5.561019322
C        6.049541738   5.387910334   0.577241729
C        5.521173874  -0.268547220   6.624658998
C        5.259009334   0.014520941  -0.099750690
C       -0.579211901   5.470130362   6.057062155
C        0.220723349   5.728903362  -0.552542052
C        0.240020582   0.335889745   6.160185520
C       -0.008499156  -0.482486216  -0.263108604
N       -0.910139165   5.663447750   0.416509986
N        0.739185628   5.653178980   5.383322216
N        0.373361294   0.858504792   0.266100457
N        0.057143361  -0.890593603   5.335352804
N        5.188052206   5.536860742  -0.630262153
N        5.200609449   5.521047016   6.382047973
N        6.565691572   0.041600912   0.616455618
N        5.720693171   0.540602931   5.390352942
H        7.304117974   5.564990043   6.232627112
H        5.410034922   5.377472542   1.467269383
H        6.337295063  -0.992730353   6.697702406
H        5.191201021  -0.915206873  -0.674585837
H       -1.361011897   5.447822145   5.288426906
H        0.871668833   4.862923391  -0.391937356
H       -0.685392686   0.921625187   6.132359307
H       -0.341402751  -0.367946567  -1.298647017
H        5.207465744   0.876538842  -0.773240279
H        4.563236020  -0.791796729   6.543755484
H        6.740122554   6.236441888   0.615794443
H        6.423188286   6.508959459   4.979162371
H       -0.814909236  -0.882760347   0.358838611
H        1.073671498   0.913982179   5.743449260
H        0.778787882   6.654154786  -0.373810473
H       -0.736455519   6.310954279   6.742025401
H        6.609705725   4.449797176   0.501069243
H        6.454971691   4.720678806   4.887093433
H        4.450437069   0.060893270   0.639436595
H        5.526654176   0.403032986   7.489600798
H       -0.189683958   5.714655469  -1.566602010
H       -0.555382730   4.528918507   6.619319499
H        0.873058643  -1.131279820  -0.220026854
H        0.462177524   0.032294836   7.188993785
H       -0.134095103  -0.648874204   4.350440134
H       -0.448804714   1.488250631   0.307746520
H        0.752860775   6.521569567   4.819385925
H       -0.577241721   5.696190367   1.389800354
H        5.764006900  -0.069072324   4.554378622
H        7.341234918  -0.009214329  -0.069329383
H        5.140464023   6.340280515   7.020168987
H        4.609193884   6.396908965  -0.561548775
H        0.917306978   4.883860401   4.713679219
H       -1.447952455   4.783060910   0.306527936
H       -0.750459474  -1.448135412   5.674255572
H        1.079663591   1.298780654  -0.339312258
H        5.185697422   4.669465969   6.973843553
H        4.541950063   4.731931009  -0.715747468
H        6.599333569   1.091755461   5.445735454
H        6.623097817  -0.751083873   1.276779961
H        0.787225350   0.762798592   1.213504828
H        0.905774666  -1.490316754   5.377797664
H       -1.568438021   6.456276079   0.289165309
H        1.497721725   5.691226552   6.090054669
H        6.645995207   0.905627105   1.183809190
H        4.945258486   1.219411413   5.272202164
H        5.763816572   5.594045232  -1.480814946
H        4.373104590   5.512775247   5.766231286
