CRYSTAL
PRIMVEC
11.2820 0 0
0 11.1747 0 
0 0 11.3552
PRIMCOORD
96 1
Pb       2.850388910   2.727811441   2.987527200
Pb       2.876481059   2.713529387   8.763734926
Pb       2.883024910   8.348283868   2.893301443
Pb       2.876700195   8.297301811   8.670589268
Pb       8.540925506   2.876606051   3.007254172
Pb       8.512111081   2.744392539   8.741784839
Pb       8.566514846   8.385996001   2.905916238
Pb       8.621413117   8.349225666   8.634641937
Cl       2.996393987   2.914961728   5.843975382
Cl       2.228770687   2.642195545   0.192823453
Cl       3.019323694   8.112635020   5.780558494
Cl       3.109242843   8.428229493   0.125970805
Cl       8.623345801   2.768756702   5.843732192
Cl       8.820566116   2.397359146   0.180029914
Cl       8.241350778   8.659265015   5.766603740
Cl       8.852851389   8.671267440   0.106171500
Cl       3.756814530  -0.077073684   3.035120558
Cl       3.034930184  -0.098240568   8.228874506
Cl       2.418260626   5.518911885   3.145867448
Cl       3.284940200   5.489286105   8.451773327
Cl       8.093675653   0.028521489   2.879435362
Cl       8.953749921  -0.035117232   8.578276414
Cl       9.089168875   5.606356297   2.452295952
Cl       8.394801109   5.545067987   9.370388116
Cl       5.710631108   3.248132184   3.001031489
Cl       5.686660736   2.484724017   9.269987098
Cl       5.720160385   7.721499724   2.955289337
Cl       5.719889703   8.414881895   8.599034796
Cl       0.066991360   2.128430510   3.183679506
Cl       0.056743951   3.260258849   8.489530774
Cl       0.077120391   9.123238021   3.065957057
Cl       0.075081641   7.940299459   8.207543067
C        6.153345479   5.489859551   6.220006965
C        5.172546094   5.414404595   0.088180851
C        6.116286378   0.541022351   6.040775923
C        5.866618836  -0.456249211  -0.263282998
C       -0.340708736   5.688489709   5.429735250
C        0.662968008   6.048560404  -0.114561809
C        0.350754249  -0.020651158   6.202842620
C        0.473942160  -0.242210998  -0.631341172
N       -0.312649205   4.926830495  -0.033646791
N        0.930126012   5.525207348   6.189644056
N       -0.272865341   0.046628974   0.624919725
N       -0.964555316   0.019930556   5.502577799
N        6.041663242   6.618609278  -0.037376923
N        4.912479570   5.499670768   5.394880805
N        5.841773666   0.735434239   0.632407231
N        5.239456431  -0.656384652   5.899584193
H        5.865084166   5.525877564   7.276057430
H        5.252928063   4.827146224  -0.831723675
H        6.628613256   0.483402247   7.007144195
H        6.777000915  -0.413228413  -0.870751998
H       -0.099659681   5.760936122   4.364974457
H        1.236604933   5.941953215  -1.041766465
H        0.166913676   0.011432878   7.280201795
H        1.531791662  -0.380113567  -0.386290134
H        4.982900986  -0.432854726  -0.909084574
H        5.486549028   1.436159051   5.989365242
H        4.141150473   5.749664550   0.240015846
H        6.751186201   6.372036942   5.961987303
H        0.345186703   0.605296330  -1.313342501
H        0.938912392   0.848472326   5.887378892
H        1.328072512   5.990281586   0.753059905
H       -0.833272945   6.603816040   5.778988882
H        5.513950307   4.831793251   0.951020446
H        6.710333874   4.572323030   5.999444420
H        5.860871664  -1.355144876   0.361448111
H        6.839941681   0.536301624   5.220713270
H        0.105929368   6.992300524  -0.114920989
H       -0.972541540   4.813552823   5.620593492
H        0.058307831  -1.151418876  -1.080610101
H        0.863136522  -0.950994812   5.933501444
H       -1.481477909   0.895057235   5.718419870
H        0.081332658   0.893275983   1.101276987
H        1.546430510   6.348246055   6.069270573
H        0.173065055   4.018165412  -0.058813967
H        4.511393918  -0.658252257   6.640643770
H        5.795311560   1.593909882   0.056240951
H        4.348275610   6.354435208   5.566317707
H        5.730222493   7.238557338  -0.809041150
H        1.460630050   4.688965903   5.888673075
H       -0.984707850   4.961154984  -0.820575998
H       -1.570824475  -0.779578571   5.764467177
H       -0.203300570  -0.733967884   1.308659320
H        4.313373312   4.677151862   5.606929066
H        7.012284128   6.346281882  -0.264973839
H        5.790342604  -1.521883794   5.981263995
H        6.694399714   0.760401570   1.218601205
H       -1.270426351   0.215870263   0.433258094
H       -0.829048758  -0.012842436   4.483275311
H       -0.876299171   4.997118773   0.837071144
H        0.749793967   5.414619214   7.196452420
H        5.042623694   0.688206861   1.288183108
H        4.760604042  -0.642814472   4.979536377
H        6.027085085   7.150120554   0.854470325
H        5.129748475   5.466646763   4.389768468
