CRYSTAL
PRIMVEC
11.2820 0 0
0 11.1747 0 
0 0 11.3552
PRIMCOORD
96 1
Pb       2.860421769   2.973436252   3.013139124
Pb       2.809833627   2.751971469   8.766027146
Pb       2.996161442   8.553029320   2.837132303
Pb       2.930280456   8.400773549   8.502916255
Pb       8.449840466   2.898673892   3.014085400
Pb       8.305573571   2.625017046   8.712580021
Pb       8.740080810   8.404065341   2.982477511
Pb       8.424417929   8.223299983   8.611253646
Cl       2.812569580   3.542057952   5.943954732
Cl       2.542200326   2.287239141   0.250388204
Cl       2.647471358   8.009065128   5.663845939
Cl       3.557358064   8.844286810  -0.044951226
Cl       8.279360604   3.055732950   5.857546762
Cl       8.611081768   2.350602167   0.155547002
Cl       8.476106937   8.503871965   5.818893628
Cl       8.536539179   8.355978912   0.121540779
Cl       3.110489129   0.156086095   3.635879546
Cl       3.195460950   0.019495039   7.841239265
Cl       2.661526563   5.755742214   2.144594737
Cl       2.444982671   5.585316015   9.152684641
Cl       8.481669425   0.042445382   2.899917008
Cl       7.546543687  -0.208373346   8.709973652
Cl       8.981607372   5.629790695   2.649002319
Cl       8.905246398   5.408511692   8.773707244
Cl       5.641305077   3.094704900   2.913963486
Cl       5.564932495   3.416567678   9.026145583
Cl       5.884384680   8.515698334   2.911007536
Cl       5.663204878   7.538414925   8.264597899
Cl       0.028198545   2.536365159   3.220315509
Cl      -0.063255536   2.476978258   8.372012780
Cl       0.249360888   8.849966073   2.340430457
Cl       0.064544572   8.270912002   8.610690618
C        5.768203140   5.994315945   5.088578867
C        6.336749970   5.593139943   0.368276370
C        6.094053410   0.345564730   5.637750486
C        5.339625600   0.602558642   0.338294738
C       -0.347974382   5.714757844   5.403485452
C       -0.016107765   4.831921617   0.127897299
C       -0.234612595  -0.448150413   5.701862761
C        0.104034496  -0.373110692  -0.516175396
N       -0.071223392   6.320754298   0.067778792
N        0.294978948   5.537499287   6.736662313
N       -0.073102310   0.495145196   0.680702423
N        0.645159326   0.751380023   5.776095212
N        4.963985617   5.845672690  -0.150999686
N        5.712230976   4.983605860   6.182165303
N        6.438108606  -0.400716062   0.380508080
N        5.528391901  -1.032974934   5.726768926
H        5.767051099   5.470712058   4.127326659
H        6.500818850   6.220258219   1.249755669
H        7.180969636   0.265189659   5.552664337
H        4.663732136   0.337796421  -0.480200609
H        0.217885702   6.473181982   4.849772847
H        1.012572133   4.521666315  -0.067526770
H        0.042884784  -1.031088698   4.815970015
H        1.055957870  -0.907963421  -0.417717241
H        5.778533884   1.592111580   0.177234320
H        5.818303658   0.883773152   6.550122542
H        7.060421110   5.841337804  -0.415054366
H        6.682942717   6.584491105   5.207202332
H        0.108855742   0.261670234  -1.409423278
H       -1.274573138  -0.115140292   5.617824361
H       -0.696262435   4.432182576  -0.629585165
H       -1.381752432   6.040061590   5.554713443
H        6.415342759   4.534518655   0.635012195
H        4.889447742   6.642109866   5.176610737
H        4.799747937   0.574301866   1.290553843
H        5.672198072   0.833329801   4.752155586
H       -0.326292925   4.518844107   1.128842849
H       -0.324141282   4.758556039   4.870225982
H       -0.723173528  -1.089284654  -0.551804144
H       -0.097593139  -1.051279157   6.606126862
H        0.513280599   1.349325610   4.933935987
H        0.721350417   1.158617743   0.759873885
H        0.317210501   6.424534972   7.272971743
H        0.228501989   6.671265133  -0.856684723
H        5.934040501  -1.549454060   6.519867933
H        6.942193892  -0.422094773  -0.528424726
H        6.512689308   4.321241629   6.121481978
H        4.815920944   6.838029344  -0.396943195
H        1.262110754   5.188025377   6.634948042
H        0.543328416   6.734478722   0.784021251
H        1.637848346   0.485121954   5.828653444
H       -0.114548440  -0.080761516   1.534931674
H        4.829254691   4.438492173   6.139296711
H        4.234668514   5.625503641   0.556600740
H        5.726354451  -1.572978743   4.860107253
H        6.063239598  -1.340056428   0.565818060
H       -0.948197647   1.052674128   0.616372878
H        0.422493515   1.324937452   6.615518612
H       -1.025425473   6.684130964   0.236440763
H       -0.219936380   4.854784650   7.312939602
H        7.124105930  -0.189509701   1.131670762
H        4.506549614  -0.995810917   5.854968681
H        4.787007936   5.281492300  -0.996263163
H        5.746210838   5.453567544   7.100761901
