CRYSTAL
PRIMVEC
11.2820 0 0
0 11.1747 0 
0 0 11.3552
PRIMCOORD
96 1
Pb       2.733889068   2.811532197   2.971311031
Pb       2.931961493   2.818388252   8.639991503
Pb       2.774635929   8.308691714   2.938370697
Pb       2.946354320   8.372818844   8.592403875
Pb       8.416188487   2.720621802   2.936371346
Pb       8.594393997   2.782678133   8.590064956
Pb       8.373775079   8.398024320   2.970646379
Pb       8.566553171   8.403262045   8.638644781
Cl       2.662045035   3.328608446   5.850218974
Cl       2.536834355   2.668447342   0.150871433
Cl       2.996211556   7.752725079   5.770705055
Cl       2.881646672   8.767839123   0.079392662
Cl       8.638363906   2.165153967   5.768471134
Cl       8.523834285   3.179592108   0.077267857
Cl       8.301149797   8.917157361   5.848597281
Cl       8.176749172   8.254319522   0.149719814
Cl       3.181114719  -0.040649121   2.794725807
Cl       3.605979169  -0.014226489   8.461487007
Cl       2.077261443   5.537763965   2.557677084
Cl       2.329599223   5.578095266   9.057715965
Cl       7.718086165  -0.050673246   2.556728215
Cl       7.970990522  -0.011752804   9.057192606
Cl       8.821523478   5.545605994   2.794989617
Cl       9.248404110   5.570573090   8.461198283
Cl       5.551616377   3.476970630   2.990256502
Cl       5.747642500   3.294278155   8.174228212
Cl       5.549768676   7.732480252   2.911647367
Cl       5.746505306   7.975217697   8.689381294
Cl      -0.090462602   2.146593633   2.911635567
Cl       0.112097321   2.386353187   8.690026557
Cl      -0.090121389   9.064198909   2.990170349
Cl       0.100103020   8.881821619   8.175127155
C        6.703011454   5.710492974   5.831303422
C        5.069626524   5.476775344  -0.140643846
C        5.160418456   0.095078937   5.334788409
C        5.537748156   0.824501882   0.087748183
C       -0.480287284   5.682237231   5.334630128
C       -0.103460845   6.412131631   0.087709345
C        1.061803995   0.122506371   5.829506571
C       -0.571420795  -0.110724294  -0.140205485
N        0.055921803   4.931322939   0.070827298
N        0.502850443   5.663913639   6.452150170
N        0.747216584   0.019024763   0.540226531
N       -0.353733234  -0.292048036   5.633160149
N        6.388571417   5.604316321   0.539586160
N        5.287766875   5.295915475   5.633042788
N        5.696537303  -0.656361682   0.070866969
N        6.142976928   0.077423764   6.452823433
H        6.783910280   6.218091173   6.796985775
H        5.232042274   5.427239043  -1.221929373
H        5.702744662   0.131511900   4.384272126
H        6.533004151   1.273319955   0.011644549
H        0.061576314   5.717173923   4.383799534
H        0.891883081   6.861292991   0.014928859
H        1.143322370   0.634312990   6.792919482
H       -0.408658074  -0.162117303  -1.221349698
H        5.055442802   1.105972838   1.028388668
H        4.517382775   0.975187790   5.448972353
H        4.461992150   6.353546642   0.108994125
H        6.983739546   6.379996634   5.014889960
H       -1.179807306   0.766006499   0.107728971
H        1.342918301   0.788131526   5.010044901
H       -0.588756750   6.693119236   1.026949715
H       -1.121847995   6.563470466   5.448499405
H        4.576638317   4.567058666   0.219660136
H        7.327987397   4.810225196   5.822548939
H        4.918428791   1.111007868  -0.766097183
H        4.556140367  -0.816908025   5.390851017
H       -0.720163541   6.698788869  -0.768002693
H       -1.086008139   4.771273922   5.391663422
H       -1.063805982  -1.020211249   0.221505371
H        1.686183746  -0.778225021   5.824445811
H       -1.002149825   0.515267567   5.635995049
H        1.241563967   0.895377815   0.279241584
H        1.118850227   6.492370398   6.426108251
H        0.653550300   4.646051191   0.863679285
H        6.757412710   0.906976459   6.427986592
H        6.295703603  -0.941575469   0.862606543
H        4.639079286   6.102998339   5.637424469
H        6.883176606   6.481075095   0.280341827
H        1.127844386   4.837329981   6.385837241
H        0.527924589   4.626824988  -0.793610114
H       -0.628380029  -0.943627069   6.387816017
H        1.379801938  -0.774394082   0.326603429
H        5.012915961   4.642558102   6.386009298
H        7.020765676   4.811137381   0.323911997
H        6.769330641  -0.748109290   6.385952885
H        6.166543368  -0.961364885  -0.794458405
H        0.629851346   0.042925619   1.562689093
H       -0.453388751  -0.800901419   4.731920526
H       -0.854656483   4.440827348   0.138723552
H        0.009311861   5.642835999   7.360828320
H        4.785913485  -1.146467949   0.140781364
H        5.648980576   0.054776856   7.361218218
H        6.271609235   5.625801955   1.562145079
H        5.188783491   4.788984567   4.730661893
