CRYSTAL
PRIMVEC
11.2820 0 0
0 11.1747 0 
0 0 11.3552
PRIMCOORD
96 1
Pb       3.048641838   2.856545173   2.879847458
Pb       2.826341148   2.840910799   8.545940407
Pb       2.994667218   8.408514506   2.931726614
Pb       2.827494584   8.393994159   8.605362341
Pb       8.700174311   2.810576461   3.055067251
Pb       8.524272276   2.744860239   8.709881647
Pb       8.564487647   8.318186377   2.986705502
Pb       8.412776814   8.351289115   8.726596062
Cl       2.992305843   2.469222642   5.680296653
Cl       3.180879859   2.899442079   0.032141019
Cl       2.527747303   8.474435607   5.739905677
Cl       2.810723887   8.650321593   0.110827036
Cl       8.314375806   3.320232303   5.882890040
Cl       8.272563609   2.413165080   0.236596167
Cl       8.661033794   7.887513322   5.849470808
Cl       8.067500857   8.688811914   0.217021247
Cl       3.735854349   0.061940135   2.796025805
Cl       2.699745111   0.059454995   8.742923359
Cl       2.237517638   5.640244868   2.856499364
Cl       2.538368291   5.635135338   8.979974061
Cl       8.071280841  -0.023711732   3.551685877
Cl       8.313261319  -0.019729592   7.952276344
Cl       9.405936781   5.545395040   2.730743830
Cl       8.512251576   5.542208177   9.325064442
Cl       5.923294675   3.444125839   2.930097734
Cl       5.681478283   2.897840372   8.545072256
Cl       5.806128703   7.755158632   3.290247807
Cl       5.672539582   7.950811832   8.253389139
Cl       0.262537056   2.269612243   2.578721427
Cl       0.041998076   2.675551486   9.243541299
Cl       0.141989039   9.025012857   2.960876958
Cl      -0.013844207   8.409376067   8.291975892
C        4.782718435   5.375920462   5.896669682
C        5.164508475   6.029272163   0.106777639
C        5.386160711  -0.474189552   6.109405833
C        5.520301570  -0.021364809  -0.609616948
C        0.324592600   5.122075218   6.125025402
C       -0.006568323   6.372171781   0.025847237
C        0.266178979   0.471382021   5.997270090
C       -0.317149278  -0.335478926  -0.232504213
N        0.387849304   4.944774675   0.202166868
N        0.143202087   6.361956670   5.320658731
N        1.002296761   0.174331089   0.236813381
N       -0.536576529  -0.766595905   5.800803206
N        6.014365143   4.815255988  -0.060605888
N        6.184115145   5.866737739   5.854941077
N        6.187288509   0.040685173   0.720950982
N        5.825622536   0.887715610   5.692400794
H        4.619217042   4.725936615   5.033912460
H        4.972188348   6.454986658  -0.882551666
H        6.268247598  -1.115731835   6.191986258
H        6.290535480  -0.032681112  -1.390232082
H       -0.543013137   4.471946326   5.962670869
H        0.371184188   6.712282844  -0.942434555
H       -0.053833944   0.954949265   6.927812219
H       -1.027011344   0.498940325  -0.246807650
H        4.880526179   0.858465501  -0.724419429
H        4.696173727  -0.856534580   5.351048440
H        5.701640948   6.745779665   0.736909906
H        4.112885455   6.242646600   5.859214794
H       -0.651672942  -1.111655789   0.463089677
H        0.116237112   1.132583975   5.136056918
H        0.437067445   6.952871983   0.841072337
H        0.402282832   5.401495703   7.181798849
H        4.223325395   5.732127278   0.581909123
H        4.639697585   4.821234862   6.827943500
H        4.913428291  -0.931617855  -0.651374042
H        4.879410856  -0.393125390   7.076855912
H       -1.098070192   6.433300102   0.057034018
H        1.243911435   4.622924687   5.796474474
H       -0.188744187  -0.749977132  -1.238607558
H        1.320797542   0.188706042   6.071604141
H       -1.545630888  -0.568423919   5.790029613
H        0.899629654   0.663764523   1.144514500
H       -0.747845375   6.839284580   5.567913001
H        1.411740018   4.835566753   0.190085065
H        6.369745271   0.826334484   4.813929334
H        6.795892372   0.879206561   0.778197952
H        6.328923514   6.428436528   4.995134254
H        6.922875505   5.053180825  -0.503711552
H        0.115880374   6.148205028   4.313567846
H        0.028140012   4.337882330  -0.559586301
H       -0.365756163  -1.440944114   6.575287959
H        1.393941169   0.845912281  -0.437364896
H        6.871351156   5.090491231   5.875657812
H        5.561242358   4.125026965  -0.680227123
H        6.437635712   1.311816534   6.402474322
H        6.800316321  -0.786839100   0.837986316
H        1.682938484  -0.605858773   0.324812159
H       -0.286024833  -1.229335883   4.902793149
H        0.050158261   4.579580303   1.104575921
H        0.922544653   7.033952601   5.480290493
H        5.485664790   0.063820200   1.488270695
H        5.002851747   1.508529450   5.564816168
H        6.181758427   4.348558723   0.849839811
H        6.351452176   6.496936346   6.659173900
