CRYSTAL
PRIMVEC
11.2820 0 0
0 11.1747 0 
0 0 11.3552
PRIMCOORD
96 1
Pb       2.867967700   2.805126419   2.930095930
Pb       3.072658806   2.776420193   8.577410144
Pb       2.885636473   8.371203757   2.909757318
Pb       3.064755245   8.422378048   8.572407065
Pb       8.549183442   2.769358289   3.002491037
Pb       8.629180178   2.740667128   8.579178505
Pb       8.600950311   8.350146014   3.002211182
Pb       8.661598368   8.431212365   8.555539702
Cl       3.283186736   2.385939407   5.740386654
Cl       2.462739817   2.688792394   0.056235817
Cl       3.321860994   8.795162782   5.728650637
Cl       2.444547055   8.484418335   0.047375999
Cl       7.946834036   2.901097164   5.771409034
Cl       8.727929139   2.989049237   0.076647810
Cl       7.859994254   8.298045546   5.749166161
Cl       8.915021433   8.191547328   0.057386215
Cl       2.763306629   0.001028297   2.832845008
Cl       2.357848809   0.010251002   8.474941531
Cl       2.422140147   5.596590046   3.237689850
Cl       3.568296382   5.603379293   8.112048788
Cl       8.242209401  -0.041313671   2.983111353
Cl       9.130516287  -0.005518269   9.215633431
Cl       8.270970388   5.560234073   2.739440322
Cl       8.107598491   5.592322363   8.750890825
Cl       5.735049378   2.537016874   2.646758745
Cl       5.898655886   2.376908496   9.109995935
Cl       5.773266773   8.463849254   2.433216862
Cl       5.944419769   8.724157544   9.274079000
Cl       0.098449225   2.614218216   3.668614757
Cl       0.246034897   3.401330808   8.344418267
Cl       0.124935754   8.599656446   3.673328464
Cl       0.280116356   7.744961903   8.318323380
C        5.253978274   5.576843479   5.001890109
C        5.091302620   5.338693877   0.231797571
C        5.996397365   0.013666714   6.179209450
C        5.033611287   0.012458252   0.098837673
C       -0.707675025   5.611131797   5.682736184
C        0.261100314   5.564918647   0.709132212
C       -0.396134252  -0.001990320   6.355554897
C       -0.346289935   0.038822620   0.918921934
N       -0.670864299   5.530601524  -0.452999110
N        0.743889558   5.540308174   6.009042773
N        0.654443104   0.010986398  -0.183606495
N        0.790294658   0.030820621   5.461499070
N        6.381024731   6.078649409   0.113406429
N        6.172929277   5.567868271   6.173085527
N        6.524874968   0.057581111   0.075260966
N        5.467017000  -0.040764010   4.786818374
H        5.852595676   5.592216081   4.084932407
H        4.472106560   5.572627267  -0.641922108
H        5.682943998  -0.895658027   6.702412289
H        4.676614316   0.057364543  -0.934892004
H       -0.955452602   4.773330798   5.024635146
H        0.857965269   4.647538620   0.706040221
H       -1.300381225  -0.022726483   5.734804460
H       -0.958957487   0.938521656   0.801669084
H        4.672130851   0.873255946   0.667367089
H        5.592423151   0.906531407   6.666442321
H        4.590138921   5.655296103   1.154525041
H        4.623947041   6.469224020   5.071086003
H        0.185595936   0.051169359   1.874767798
H       -0.376511262   0.891873104   6.988039237
H       -0.337517329   5.629363120   1.624459888
H       -0.902603562   6.568728700   5.190606124
H        5.307738817   4.265143033   0.266610501
H        4.635475024   4.675050840   5.048491922
H        4.724280803  -0.923778819   0.571354452
H        7.087796547   0.069717245   6.128358657
H        0.908500939   6.442545403   0.612582759
H       -1.271890387   5.540927429   6.619550408
H       -0.973939372  -0.853089616   0.833678419
H       -0.331297129  -0.898044696   6.982311698
H        0.760649305   0.872428387   4.852941262
H        1.275828253   0.845596621  -0.151239385
H        1.331665015   5.564181178   5.152111609
H       -1.313924069   4.716954979  -0.373093074
H        4.440420484  -0.120777358   4.785616799
H        6.848184391   0.928248688  -0.373078350
H        6.777865606   6.411395353   6.168454773
H        6.232638610   7.096587257   0.086444317
H        0.933381126   4.676161663   6.544447993
H       -0.176715916   5.454477385  -1.351673965
H        0.803840852  -0.807462429   4.849623541
H        0.181707254   0.004112348  -1.098060815
H        6.783839918   4.727771902   6.156663251
H        6.890596966   5.825327676  -0.756348434
H        5.834830782  -0.853358812   4.269497526
H        6.893627988  -0.730309077  -0.478473160
H        1.256399698  -0.836459020  -0.130155297
H        1.659026828   0.053731120   6.014554792
H       -1.248830153   6.393641484  -0.465303531
H        0.991311929   6.330309167   6.629523738
H        6.930455607   0.009854794   1.027170430
H        5.706140913   0.808696358   4.241827605
H        7.002819242   5.881760162   0.922206742
H        5.617895501   5.561774750   7.046682968
