CRYSTAL
PRIMVEC
11.2820 0 0
0 11.1747 0 
0 0 11.3552
PRIMCOORD
96 1
Pb       2.746721229   2.938177311   2.877013745
Pb       2.958401498   2.600490464   8.609899662
Pb       2.882542180   8.478298072   2.795021526
Pb       2.995788058   8.188426425   8.532646035
Pb       8.519505797   2.960511402   3.040102876
Pb       8.638374754   2.635092851   8.730093445
Pb       8.407242959   8.448883722   3.043847234
Pb       8.618750883   8.209356662   8.772406339
Cl       2.933356690   2.540897564   5.726770964
Cl       3.037478902   2.762100922   0.098345075
Cl       2.615722017   8.409704774   5.656533156
Cl       2.755605117   8.217831709  -0.008458572
Cl       8.042042437   3.017778044   5.896815397
Cl       8.422351969   2.691369995   0.225923831
Cl       8.519830214   8.080417717   5.894061476
Cl       8.723068875   8.332904536   0.256396856
Cl       3.405758719   0.130944452   2.866687451
Cl       2.657754891  -0.196533693   8.368736503
Cl       2.051542566   5.716597871   2.971703823
Cl       3.752186578   5.365459934   8.524159956
Cl       7.894329371   0.120760860   2.897539894
Cl       8.926670979  -0.162363262   9.093219070
Cl       9.270513533   5.697501969   2.918726968
Cl       8.108775443   5.410258809   8.984609302
Cl       5.643379634   3.166245843   2.765101296
Cl       5.794804264   2.110464762   8.921575631
Cl       5.643004415   8.092631214   3.023755588
Cl       5.805693028   8.404780908   8.453293501
Cl      -0.014750642   2.053250351   2.958419237
Cl       0.153576327   2.853524003   8.554844779
Cl      -0.002298009   9.046791434   2.955274718
Cl       0.147058619   7.754692679   8.605779800
C        5.161498920   5.599059513   5.359003271
C        5.764125696   5.902724166   0.430432938
C        5.748839450  -0.373852170   6.090804868
C        5.635189262  -0.723388410  -0.142363782
C        0.113189512   5.190420646   6.104363592
C       -0.003916234   5.160365347  -0.242711995
C       -0.334223641  -0.002594788   6.197402553
C        0.572950753  -0.011440340  -0.243403539
N        0.080062781   6.467361713   0.466680925
N        0.007390049   6.498614366   5.400597613
N       -0.701451237  -0.036360909   0.530631405
N        0.928675002  -0.009495965   5.405423211
N        5.720719553   4.606135067  -0.299916773
N        6.211524893   5.741473349   6.404858340
N        5.701097322   0.624847365   0.489666043
N        5.679687828   0.873315424   5.274491019
H        5.642242753   5.471608369   4.384977551
H        4.843880417   6.457149472   0.213705490
H        4.958769504  -1.056339874   5.757943675
H        6.531545769  -0.858654971  -0.755999343
H        0.989234449   4.654189621   5.722655201
H        0.958955841   4.645417644  -0.145986044
H       -0.888367267   0.913599946   5.961042896
H        1.409263757   0.081286257   0.458787898
H        4.743222391  -0.765155315  -0.776431912
H        5.603630442  -0.111636456   7.143582230
H        6.637674757   6.467174577   0.086010793
H        4.542495107   6.501720603   5.361409122
H        0.545584876   0.842547118  -0.928877201
H       -0.077608323  -0.027089602   7.261119294
H       -0.227097267   5.350729983  -1.296520305
H       -0.799111391   4.613624881   5.911288234
H        5.839951718   5.693609123   1.501288923
H        4.551258894   4.723335214   5.603655086
H        5.586357623  -1.481826845   0.647409834
H        6.730400264  -0.838509971   5.944754436
H       -0.803388148   4.565560391   0.212697933
H        0.217962804   5.380232845   7.176397870
H        0.653654884  -0.941822975  -0.815111670
H       -0.924234065  -0.885379471   5.923645988
H        1.530804865   0.801783327   5.640336745
H       -0.799308735   0.816536149   1.103685831
H       -0.103816419   6.355479087   4.386921276
H        0.830868787   7.062310058   0.069654337
H        4.762107941   1.346480481   5.380990373
H        5.768332941   1.343575323  -0.252401753
H        6.809912227   6.571731037   6.248440643
H        5.605134434   4.759087147  -1.312142159
H        0.851968273   7.083567009   5.548637860
H        0.311373113   6.320735397   1.461144618
H        0.728909180   0.034969145   4.396349442
H       -0.710728856  -0.835454717   1.187959704
H        6.831987325   4.913276741   6.425167350
H        4.919172950   4.024315761   0.005267177
H        5.817257492   0.675490612   4.274087664
H        6.520289740   0.701236974   1.117084808
H       -1.501787493  -0.114449143  -0.121717708
H        1.479975655  -0.871368420   5.586028890
H       -0.813133777   6.993271869   0.413187929
H       -0.820166260   7.033277875   5.725107507
H        4.863726183   0.806477780   1.064819758
H        6.415836689   1.550326599   5.553974348
H        6.588626077   4.061862082  -0.155508016
H        5.774004062   5.840487315   7.336096961
