CRYSTAL
PRIMVEC
11.2820 0 0
0 11.1747 0 
0 0 11.3552
PRIMCOORD
96 1
Pb       2.895002919   2.901587307   2.797167359
Pb       2.997176571   2.746092152   8.521140155
Pb       2.881420189   8.457881993   2.930132268
Pb       2.924736361   8.319779332   8.660521048
Pb       8.643161739   2.847352271   2.971991365
Pb       8.509248201   2.672730555   8.564632519
Pb       8.507102963   8.325324625   3.143402584
Pb       8.440058034   8.311785084   8.661259591
Cl       3.015216826   2.739239548   5.664142716
Cl       3.269482950   2.490587053   0.010915664
Cl       2.893691303   8.445910321   5.799063504
Cl       2.524174056   8.852554588   0.120908351
Cl       8.884687161   3.116616551   5.782146212
Cl       8.175897983   2.680056354   0.096031321
Cl       8.879871399   7.913599129   5.912913796
Cl       8.438987892   8.258706096   0.232648236
Cl       3.500804746   0.086169722   3.044336956
Cl       2.353071066  -0.078453855   8.370220901
Cl       2.386844701   5.686977755   2.670021535
Cl       3.127040532   5.531572236   8.154478462
Cl       8.261192932  -0.000423125   2.857035390
Cl       8.979343667  -0.114182637   8.195395554
Cl       9.155670414   5.607974013   2.673030449
Cl       8.295119850   5.488884309   8.908602473
Cl       5.769837813   3.433526778   2.973569341
Cl       5.741785206   2.130375326   8.355624910
Cl       5.679988313   7.674172693   2.997440831
Cl       5.690195074   8.812337201   8.338585777
Cl       0.136270584   2.371174912   2.432705762
Cl       0.118648478   2.900722734   8.797247582
Cl       0.057485468   8.769925866   3.170277263
Cl       0.068900618   8.000216884   8.687662135
C        6.107755650   5.499329066   6.273974175
C        5.382750248   5.721345628  -0.262891171
C        6.113132774  -0.119240961   5.482187170
C        5.756468264  -0.349501831  -0.318132547
C        0.420902353   5.481005460   5.470049062
C        0.136366573   5.374483417  -0.179470813
C        0.125343326   0.381809666   5.235742398
C       -0.570189169  -0.362712229  -0.020091608
N        0.047531606   6.688390735   0.519864862
N       -0.321876311   5.445788584   6.761929661
N        0.559584001   0.597596283  -0.179988752
N        0.058385003  -0.786796567   6.158949980
N        6.641535884   5.544268663   0.513767599
N        4.954871859   5.536022941   5.327761133
N        5.811747816   0.546962099   0.869712974
N        4.784107817  -0.047005668   6.149547371
H        6.081496579   6.406199561   6.887310230
H        5.642138805   5.854589457  -1.319022501
H        6.667436437  -0.965546585   5.904354117
H        6.607734341  -0.125298539  -0.970099596
H        1.491798621   5.505949895   5.691690773
H        0.005686391   5.544283853  -1.251104029
H        1.059821684   0.329753026   4.666698238
H       -0.570306117  -1.044107093  -0.876741770
H        4.820148193  -0.163056581  -0.854589340
H        6.652017439   0.815514656   5.675652747
H        4.858828585   6.604111198   0.124056422
H        7.036133897   5.451912190   5.695551639
H       -1.504861969   0.207073848   0.021241977
H        0.088339603   1.299164675   5.833445043
H       -0.657802321   4.724011725   0.203425101
H        0.119958907   6.377218493   4.916251098
H        4.760164627   4.827871738  -0.132684859
H        6.008452882   4.609858531   6.905789274
H        5.804673714  -1.388553578   0.023977226
H        5.953267802  -0.252458666   4.409398847
H        1.117941830   4.934242676   0.029906830
H        0.166695914   4.583054629   4.896640974
H       -0.424057033  -0.912193766   0.916380350
H       -0.727439840   0.334530232   4.550504179
H        0.871617994  -0.790826107   6.799604509
H        0.453244712   1.179388641  -1.029839181
H       -0.134821648   6.292588149   7.337624459
H       -0.872244039   7.141765261   0.359013946
H        4.901260327   0.078114645   7.163805767
H        5.816721707   1.534061109   0.585991629
H        5.022832553   6.354840997   4.693222257
H        7.266882767   6.367542846   0.413286727
H       -0.073604678   4.613953038   7.328994847
H        0.787626773   7.345365220   0.211126313
H        0.041381627  -1.668027758   5.627919285
H        1.457249720   0.100469137  -0.250673928
H        4.071484366   5.572969426   5.856476213
H        7.167495035   4.703086371   0.205347656
H        4.227958667  -0.909219787   5.996272973
H        6.671096760   0.378207327   1.434617673
H        0.593153218   1.241635356   0.637598597
H       -0.791772518  -0.731929613   6.756031139
H        0.152938287   6.564609610   1.536366086
H       -1.336452790   5.404498799   6.599796437
H        4.994405054   0.399766947   1.496970029
H        4.230450950   0.758816092   5.804745724
H        6.439318972   5.421455398   1.516089585
H        4.961392952   4.695136068   4.724004251
