CRYSTAL
PRIMVEC
11.2820 0 0
0 11.1747 0 
0 0 11.3552
PRIMCOORD
96 1
Pb       2.655283765   2.821970412   2.896008638
Pb       2.650858760   2.861255347   8.666626049
Pb       3.107288526   8.376436285   2.898350643
Pb       3.106031632   8.442942952   8.556848288
Pb       8.309014515   2.819160691   3.012000682
Pb       8.311517309   2.738713969   8.712981182
Pb       8.757506241   8.367124180   3.014624039
Pb       8.762117026   8.319772645   8.600497611
Cl       2.074299245   2.840426561   5.793121241
Cl       2.988404224   2.730187867   0.103490722
Cl       3.224918631   7.897759531   5.724295209
Cl       3.215052354   8.845342612   0.034988994
Cl       8.199400843   2.343119521   5.879437244
Cl       8.215430012   3.316423559   0.189701547
Cl       8.414901555   8.445454841   5.807770171
Cl       9.342539230   8.342317741   0.117888393
Cl       2.301669847   0.010828180   2.656908839
Cl       2.105388430   0.072620798   8.590443688
Cl       3.550067303   5.583633142   2.561790240
Cl       3.616791926   5.656284447   8.801815317
Cl       9.107110893   0.003579481   3.259839379
Cl       9.314415904  -0.067840768   8.670219648
Cl       7.859985682   5.606760645   3.352401029
Cl       7.804635910   5.522938403   8.462323613
Cl       5.538233649   2.180495504   2.816201467
Cl       5.524288266   2.155434595   8.872019390
Cl       5.884063475   9.024363580   3.064234255
Cl       5.897167847   9.042943221   8.418816239
Cl      -0.118167940   3.530608742   2.760222645
Cl      -0.122786456   3.430015054   9.022017865
Cl       0.257368271   7.658655117   3.150100018
Cl       0.260934063   7.753689715   8.240476790
C        5.315557324   4.748188318   5.695748594
C        6.092391464   6.427142533   0.212592186
C        4.764442845   0.213939942   5.805007618
C        6.684197853  -0.156304486   0.103123906
C       -0.829841329   5.273141125   5.908149416
C        0.973878909   5.916378131  -0.000261178
C        0.361208381  -0.848924226   5.590303344
C       -0.237455732   0.854300692   0.320340164
N       -0.422854413   5.433561044   0.190516992
N        0.568048650   5.753464643   5.717385173
N        0.409828643  -0.437677496  -0.049412457
N       -0.277263176   0.448160930   5.957224194
N        5.488408693   5.077895300   0.021379629
N        5.924447971   6.093285820   5.899667732
N        5.263739104   0.289280958   0.183042531
N        6.166742749  -0.286302738   5.725740878
H        4.934879239   4.697643749   4.670470002
H        6.899765036   6.547492001  -0.516038856
H        4.590050458   0.889585039   4.962232281
H        6.884960391  -0.826932951   0.944020746
H       -1.047277945   4.534387571   5.132314036
H        1.652341860   5.061852409   0.088123622
H        1.219961109  -1.010252048   6.247716715
H        0.494011551   1.656224233   0.180863468
H        7.322957796   0.732237736   0.163637678
H        4.637105882   0.734730732   6.759513529
H        6.478656561   6.486324567   1.235301873
H        4.503677283   4.626086981   6.419020070
H       -0.547604723   0.797263493   1.367687722
H        0.672780822  -0.796023615   4.543216417
H        1.191049691   6.653841336   0.776862471
H       -1.506879243   6.128564598   5.817666932
H        5.314400326   7.181875929   0.053913849
H        6.089496791   3.989047000   5.853684121
H        6.832820017  -0.668801776  -0.852774003
H        4.091159579  -0.649051738   5.747898332
H        1.049678904   6.362540594  -0.996289475
H       -0.906969781   4.828879170   6.904951140
H       -1.097969156   1.010321216  -0.335982855
H       -0.376122285  -1.645353465   5.730523684
H        0.407560137   1.225536737   5.934583675
H        1.175618360  -0.642973455   0.613896377
H        0.652210625   6.270492935   4.819431898
H       -0.506388348   4.915691279   1.087968971
H        6.850417153   0.493434178   5.744636368
H        5.107840548   0.828497495   1.055974908
H        5.195169089   6.829625985   5.865912986
H        6.221483726   4.345623649   0.058252700
H        1.223669748   4.951619424   5.720720702
H       -0.669763085   4.777058166  -0.571716628
H       -0.697096599   0.394477225   6.906938429
H        0.828955339  -0.380571885  -0.999254635
H        6.624640870   6.272179551   5.157587849
H        4.996250821   5.029269402  -0.890082962
H        6.304591551  -0.831948994   4.853511765
H        4.606556893  -0.512848427   0.162032309
H       -0.269932138  -1.219515027  -0.027315712
H       -1.041189959   0.657160858   5.292912214
H       -1.080245495   6.233908574   0.188203263
H        0.815061880   6.410026172   6.479670966
H        5.051057180   0.915825260  -0.615327472
H        6.358814158  -0.917249634   6.525983669
H        4.791367370   4.901849330   0.767015000
H        6.415156352   6.132783403   6.812667319
