CRYSTAL
PRIMVEC
11.2820 0 0
0 11.1747 0 
0 0 11.3552
PRIMCOORD
96 1
Pb       2.883394097   2.632558852   2.950774151
Pb       2.823604813   2.710988255   8.664754884
Pb       3.013872462   8.265492948   2.998658645
Pb       2.981299285   8.402023175   8.707766470
Pb       8.459342145   2.727822109   2.789566156
Pb       8.560541308   2.834514825   8.561002860
Pb       8.610448191   8.300888915   2.913936158
Pb       8.652343059   8.453017094   8.604118489
Cl       2.924191959   2.605119305   5.807432760
Cl       2.649952430   3.006539293   0.126766639
Cl       3.131889153   8.125668445   5.878921500
Cl       2.615773365   7.963697456   0.184801690
Cl       8.507579742   2.718654595   5.708560291
Cl       8.550085046   2.024106607   0.015666357
Cl       8.707339796   8.319909439   5.773616629
Cl       8.859214117   8.792910007   0.113940681
Cl       2.625433485  -0.156302799   2.804249631
Cl       3.898188194  -0.031583840   8.821427672
Cl       3.022515111   5.446171229   3.158781812
Cl       2.445431224   5.545173424   8.350561793
Cl       8.628609410  -0.079060891   3.208635541
Cl       7.925366314   0.042678326   8.240409622
Cl       8.709142048   5.509540254   2.168907496
Cl       9.077552475   5.655812904   8.385480342
Cl       5.680871117   2.860804829   3.356077731
Cl       5.669910954   3.339905673   8.396570582
Cl       5.804962798   8.562349620   2.303388462
Cl       5.828805654   7.792697358   8.800112325
Cl       0.020835911   2.726117077   2.747861609
Cl       0.024459691   2.188443754   8.289288789
Cl       0.158763445   8.106155886   3.129005951
Cl       0.182758981   8.910929673   8.227652412
C        6.150724997   5.913768045   5.436824734
C        5.280225137   5.127473203   0.263163156
C        5.651697992  -0.325101245   5.313242048
C        5.391795919   0.437099997   0.672376113
C       -0.012018073   5.072352483   5.321726856
C       -0.256002860   5.446209855  -0.348949407
C        0.340324032  -0.082067815   5.320674691
C        0.581409427  -0.091264381  -0.187122781
N        0.650351192   5.491847667   0.832005103
N        0.138177462   6.266313322   6.200719758
N       -0.163206561  -0.099795367   1.104040477
N       -0.940150690  -0.028517210   6.075956689
N        6.269433349   6.239385604   0.169693631
N        4.883608049   5.339037966   5.964934770
N        6.272028256  -0.267114758  -0.298141521
N        5.687506077   0.952610845   6.076844547
H        6.860495224   5.096140022   5.265641832
H        5.543815250   4.357230260  -0.469539482
H        6.554250776  -0.900056863   5.551378788
H        5.114146352   1.408317359   0.247510972
H        0.862441689   5.010099520   4.666184686
H        0.358742831   5.420118309  -1.255002287
H        0.898156640  -0.968722407   5.642749840
H        1.643658230   0.060619520   0.030345004
H        5.941146330   0.570896712   1.609985129
H        5.623660385  -0.091768480   4.243847060
H        4.287956768   5.532189679   0.037726962
H        6.545641368   6.615011225   6.178480033
H        0.194006657   0.727156820  -0.804012087
H        0.911383222   0.827480438   5.535252902
H       -0.887910010   6.340182892  -0.338043285
H       -0.925429300   5.187169853   4.727331177
H        5.296193752   4.723452985   1.281797171
H        5.930818887   6.433978262   4.496362449
H        4.497487195  -0.168458009   0.845672749
H        4.756513746  -0.883359541   5.610165345
H       -0.876878754   4.546388244  -0.275833978
H       -0.082880519   4.181128933   5.955655553
H        0.420786525  -1.052061849  -0.687167426
H        0.108356024  -0.144976017   4.255145360
H       -0.759094452   0.050047445   7.085116609
H       -0.055218008   0.800239526   1.614897249
H        0.196260187   7.133185003   5.651705814
H        1.265260421   6.328621203   0.781859702
H        6.522970141   1.517380321   5.841016312
H        7.123645061   0.296551233  -0.477706368
H        5.053976102   4.809877086   6.843501155
H        6.273917729   6.651825544  -0.787170163
H        0.988249955   6.184713417   6.792981482
H        1.263688414   4.656501385   0.843260666
H       -1.507154397  -0.882303366   5.917143066
H        0.174686963  -0.851280445   1.723113765
H        4.454256123   4.691764882   5.289205310
H        7.216352448   5.928197649   0.441555039
H        5.714530432   0.769626289   7.089531388
H        5.774181820  -0.403796668  -1.196571304
H       -1.169121439  -0.252199148   0.949949652
H       -1.512471836   0.791501118   5.805752527
H        0.114323010   5.524125047   1.707572078
H       -0.668849071   6.336829520   6.847077810
H        6.579662795  -1.179545474   0.067381512
H        4.844183621   1.529906518   5.888567528
H        6.024604271   7.006040370   0.831525054
H        4.195145077   6.091275090   6.149442585
