CRYSTAL
PRIMVEC
11.2820 0 0
0 11.1747 0 
0 0 11.3552
PRIMCOORD
96 1
Pb       2.983189707   2.895966574   2.782119112
Pb       2.839478894   2.804376308   8.523049148
Pb       2.767997945   8.578751788   2.888508079
Pb       2.736168839   8.438060573   8.628645425
Pb       8.607391115   2.777257561   2.900687527
Pb       8.525171565   2.869624952   8.617503083
Pb       8.425006317   8.423673962   2.978446105
Pb       8.428955973   8.332760717   8.726726385
Cl       2.882315045   2.947491544   5.673221838
Cl       2.995963896   3.278640874  -0.035585780
Cl       2.637275360   8.575609342   5.779753372
Cl       2.749332633   7.973090329   0.092943859
Cl       8.404743028   2.842847246   5.768242581
Cl       8.725140638   2.717613935   0.056626732
Cl       8.375224963   8.482086509   5.861225861
Cl       8.710400879   8.252288422   0.164221821
Cl       2.779729388   0.150731987   1.966396876
Cl       1.922551894   0.047020689   8.670116306
Cl       2.614062113   5.743371431   3.060825740
Cl       3.426833918   5.648848237   8.236798125
Cl       8.406370885   0.010672777   3.348746839
Cl       9.081165496   0.027337507   8.554340533
Cl       8.641863721   5.594423986   2.950774848
Cl       7.444979976   5.617045244   8.685451717
Cl       5.779378730   2.884376999   3.144902750
Cl       5.682713958   2.252101026   8.426301808
Cl       5.591310394   8.427157136   2.707100991
Cl       5.595510101   9.158508679   8.689208228
Cl       0.162258289   2.867944771   2.641187629
Cl       0.056450052   3.454932293   8.432148841
Cl      -0.036184503   8.606243465   3.179755905
Cl      -0.037682859   7.763430855   8.375379379
C        5.630905738   5.925170560   5.244988295
C        6.110365711   5.502859681   0.700015682
C        5.383635527  -0.021519622   5.432006016
C        6.350884135   0.350859187   0.270298049
C       -0.267499969   5.567899516   5.342801652
C       -0.016864785   5.364411894  -0.189337445
C        0.117819030   0.390157377   5.350818273
C       -0.336100037  -0.237564349   0.419371219
N       -0.031907963   6.095300502   1.108355778
N        1.023167860   5.641529227   6.080561266
N        0.193415573   1.031783643  -0.152836575
N       -0.137864539  -0.866820966   6.111053413
N        5.102409206   5.683887055  -0.382240698
N        5.699096601   4.657012051   6.024226568
N        5.333865991  -0.738880026   0.234080276
N        6.663580215   0.057893072   6.188500845
H        6.554595975   6.488734412   5.416152518
H        6.653908799   4.570055135   0.514831637
H        5.620459127  -0.111527396   4.366422321
H        7.337036514  -0.084662990   0.075407591
H       -0.049173269   5.510341364   4.273874777
H        0.855969172   5.685846162  -0.765810462
H        0.240712592   0.138402826   4.292295818
H       -1.141776900  -0.592648021  -0.229679844
H        6.331427455   0.816661223   1.261973475
H        4.810511375   0.893567760   5.620257289
H        5.592268890   5.455731367   1.662568983
H        4.765218021   6.500706417   5.592779286
H       -0.712592293  -0.040027814   1.429227865
H        1.024938761   0.856588106   5.750682292
H       -0.937368949   5.600874138  -0.732928801
H       -0.853274239   6.465892827   5.567866506
H        6.805429755   6.347806907   0.679647945
H        5.525000827   5.675619456   4.185000965
H        6.105344187   1.085132996  -0.504788004
H        4.828737558  -0.899341250   5.782143864
H        0.037038537   4.294457949   0.025349807
H       -0.802976623   4.670112589   5.670307387
H        0.478956610  -0.967711430   0.459584327
H       -0.739551281   1.059586189   5.481075383
H        0.670709563  -1.511096022   6.036658786
H       -0.570919023   1.730911814  -0.215806069
H        1.552073569   6.496970894   5.839992957
H       -0.095994905   7.110594080   0.968784921
H        7.227150995   0.876304628   5.894559863
H        5.544331771  -1.471610713   0.942152548
H        5.828259759   4.853943038   7.028675757
H        4.439204062   4.884177690  -0.409005683
H        1.624826904   4.823795272   5.872302393
H        0.824679219   5.909072574   1.665405028
H       -0.973543828  -1.369442121   5.766089432
H        0.596831284   0.858991569  -1.093433270
H        6.497599412   4.067586371   5.725291206
H        5.572602673   5.747595612  -1.302265545
H        7.238765519  -0.794095161   6.042513142
H        5.307989884  -1.182126459  -0.708363000
H        0.932149221   1.419892711   0.449278946
H       -0.300313908  -0.664755942   7.109481089
H       -0.854378574   5.825382985   1.688686238
H        0.860110419   5.656431585   7.096581559
H        4.395206884  -0.378964588   0.486254864
H        6.484131413   0.155639636   7.197691614
H        4.521255087   6.528668338  -0.238507851
H        4.833923453   4.098700963   5.911286442
