CRYSTAL
PRIMVEC
11.2820 0 0
0 11.1747 0 
0 0 11.3552
PRIMCOORD
96 1
Pb       2.840325456   2.683196772   2.939511908
Pb       2.944856521   2.956537444   8.582135360
Pb       2.929837060   8.327747350   2.941574392
Pb       2.873977442   8.528154160   8.516787261
Pb       8.506957187   2.625543676   3.056738376
Pb       8.425515129   2.965622797   8.739013537
Pb       8.533974341   8.375354366   3.006693386
Pb       8.503998810   8.514726796   8.684685437
Cl       2.381764689   3.120902419   5.725335053
Cl       3.692743793   2.535511417  -0.002846417
Cl       2.374717085   8.011769320   5.759229241
Cl       3.073587289   8.444832839   0.038766879
Cl       8.920989648   3.177354997   5.888316273
Cl       7.959317119   2.292904977   0.185043814
Cl       8.730655180   7.791879803   5.858493331
Cl       8.562892001   9.156550113   0.148307970
Cl       3.261898955  -0.038024921   3.447319155
Cl       3.487059775   0.199452225   8.265288022
Cl       2.847136357   5.518990576   2.443929714
Cl       2.285287511   5.764466196   8.824414528
Cl       8.412438923  -0.093695257   4.003747558
Cl       8.022597307   0.192125000   8.208633618
Cl       8.444186373   5.472691970   2.563814607
Cl       9.182419797   5.783731295   9.024524980
Cl       5.643169115   2.955825958   3.547983803
Cl       5.705310222   3.307647424   7.952593124
Cl       5.752270533   7.827963334   2.967791538
Cl       5.711686649   8.200036831   8.799846217
Cl      -0.035456368   2.405360489   2.449331399
Cl      -0.002371149   2.339850966   8.742762534
Cl       0.066139079   8.474641197   2.554403949
Cl       0.039041505   9.113958421   8.772443994
C        5.112524929   5.932136413   5.897738885
C        5.738960202   5.832873559  -0.259244785
C        5.520116083  -0.955163886   5.765330055
C        5.513912915  -0.249236404   0.844999608
C        0.025565289   5.680610976   4.913427988
C        0.016703871   5.150072983   0.235605786
C        0.576797184   0.001191011   5.405757850
C        0.910335629  -0.005910360   0.240202203
N        0.293301101   6.587849807  -0.048291807
N        0.065228049   5.421926070   6.381145371
N       -0.490964802   0.408002805  -0.052787209
N       -0.555130003   0.078575805   6.374479299
N        5.669737162   4.974708187   0.955185785
N        6.481835399   5.510907064   5.484728564
N        5.762840461  -0.163509271  -0.622221533
N        5.663628562   0.524937227   5.849468010
H        4.887923439   6.884503257   5.411943340
H        6.648006688   5.587707810  -0.820949585
H        5.984987786  -1.299922625   4.837926807
H        4.460008663  -0.490869038   0.998143362
H        0.935277135   5.263709512   4.470352669
H        0.289292073   4.566064550  -0.650335218
H        1.516068699   0.138488520   5.950795123
H        1.566994314   0.858760509   0.089675547
H        5.747549329   0.722976945   1.289958638
H        4.452779760  -1.197488098   5.766058710
H        5.758793898   6.878923424   0.061377490
H        5.096721371   6.040261236   6.986748506
H        1.183519454  -0.817091748  -0.438174582
H        0.451304770   0.793601119   4.660706385
H       -1.049397634   5.037678301   0.456246464
H       -0.011165741   6.760819458   4.753897101
H        4.848357783   5.653632657  -0.871913633
H        4.398334142   5.162958698   5.581787303
H        6.148978905  -1.038073527   1.258892025
H        6.012916468  -1.394639271   6.637751811
H        0.617267144   4.850834204   1.098647741
H       -0.867104525   5.199074727   4.503585740
H        0.962523398  -0.348626039   1.278330296
H        0.557244939  -0.981938566   4.923981782
H       -0.544073855   0.969861989   6.898299548
H       -0.541465468   0.837755982  -0.993703839
H        0.898867076   5.847503927   6.820602969
H       -0.237041289   6.902402356  -0.872222027
H        5.288128071   0.995360203   5.010446477
H        5.097387846   0.491971317  -1.059768002
H        7.198281174   6.225356923   5.731091967
H        6.516104640   5.100733187   1.542393900
H        0.108879986   4.410779681   6.566733438
H        1.294241212   6.751422555  -0.245140771
H       -0.483588188  -0.674651935   7.084228289
H       -0.783269745   1.127591950   0.629222945
H        6.537309574   5.378559199   4.465840311
H        5.576118192   3.979202275   0.706841559
H        6.653591978   0.786297318   5.942324123
H        5.650120975  -1.080135320  -1.091034088
H       -1.155361553  -0.389211470  -0.003404465
H       -1.460672809   0.001182199   5.881166310
H        0.054127022   7.195282475   0.763028306
H       -0.771654974   5.791740268   6.858310492
H        6.716551145   0.172914577  -0.817812049
H        5.159018694   0.880365213   6.678266149
H        4.834313357   5.219995684   1.524359299
H        6.744687422   4.615886425   5.923313111
