CRYSTAL
PRIMVEC
11.2820 0 0
0 11.1747 0 
0 0 11.3552
PRIMCOORD
96 1
Pb       2.846101127   2.871237366   3.099189219
Pb       2.989007980   2.731591937   8.745425101
Pb       2.878087031   8.420959208   2.719991123
Pb       2.974403244   8.420942410   8.405772657
Pb       8.454739184   2.918688043   3.190534696
Pb       8.535664852   2.749752198   8.845637657
Pb       8.470849879   8.571566430   2.698201768
Pb       8.639822143   8.352242956   8.401275937
Cl       3.081644309   3.210000929   5.905344745
Cl       2.810609133   2.624465445   0.218691532
Cl       3.010279981   8.453919574   5.572270644
Cl       2.654504852   8.975888387  -0.113567913
Cl       8.342459695   3.444174565   6.046227791
Cl       8.692434562   2.927793826   0.341034844
Cl       8.467660992   8.295879782   5.520645030
Cl       8.967894477   8.735216834  -0.158850567
Cl       2.544465423   0.039450924   3.193565082
Cl       3.695575639   0.006817039   8.364276044
Cl       3.224426101   5.618609457   2.427552913
Cl       2.636104688   5.586579102   8.528342182
Cl       8.900127023   0.128801420   3.464289726
Cl       8.160562953  -0.033299086   8.191324951
Cl       8.112445346   5.740497273   2.558657346
Cl       9.200090749   5.550540881   8.954470110
Cl       5.648238758   2.552722798   2.677041537
Cl       5.751834750   3.349396285   9.117075229
Cl       5.662655632   9.059838489   2.682298834
Cl       5.794036140   7.879238480   8.233779270
Cl       0.004637196   3.428259002   3.357345860
Cl       0.122349312   2.378231973   8.818317295
Cl       0.031406488   8.105224006   2.837016179
Cl       0.164233821   8.926246412   8.112921340
C        5.634848170   5.805482716   5.070665150
C        5.745930789   6.283900351  -0.164537779
C        5.779896955   0.408366237   5.359519584
C        6.123447737   0.155186604  -0.217107755
C        0.089435598   6.066609085   5.582679421
C        0.596630300   5.566304559  -0.226860847
C        0.215698544   0.555958214   6.021506743
C       -0.089953077   0.261440538   0.767995833
N       -0.435227464   5.543569475   0.848979670
N        0.089060447   4.948460246   6.570125551
N        0.051979285  -0.282340825  -0.612879658
N        0.146418165  -0.713840750   5.248916556
N        5.742847956   4.971230521   0.531986593
N        5.633374766   5.189946229   6.426539566
N        4.816924411   0.148318540   0.498812450
N        5.817817644  -0.948659611   5.970988484
H        5.618575375   5.003637570   4.324123937
H        6.667678106   6.366346466  -0.750162207
H        6.657166126   0.966813493   5.706777961
H        6.741450473   0.961983273   0.194965838
H        0.912489315   5.910881035   4.878487350
H        0.523542409   4.635262593  -0.798311397
H       -0.647835908   0.598571788   6.693344937
H       -1.051223163   0.778517022   0.843006499
H        5.936940760   0.320749988  -1.282963976
H        4.856296081   0.906044973   5.677027250
H        5.696181015   7.081302048   0.587097835
H        6.543772479   6.405907506   4.960742592
H        0.733860195   0.957420690   0.955146504
H        0.197995556   1.391760877   5.311521186
H        1.582726092   5.654448294   0.240026729
H        0.224389941   7.004618570   6.131606739
H        4.879735589   6.325945109  -0.833239528
H        4.742345871   6.431657957   4.972192607
H        6.614929962  -0.812964184  -0.065098939
H        5.802887706   0.297999282   4.272803461
H        0.395235075   6.420233773  -0.881133085
H       -0.867465769   6.068621117   5.051373393
H       -0.048277843  -0.577055863   1.471165931
H        1.145076704   0.561841951   6.601098711
H       -0.722284628  -0.730696784   4.682444819
H        0.055743772   0.475976038  -1.321802319
H        0.977044857   4.941384450   7.107400582
H       -0.275120570   4.774281704   1.526922602
H        5.812745915  -0.883759285   6.997335084
H        4.310833570   1.052499812   0.408779905
H        6.469635937   4.586956880   6.542002332
H        6.564762332   4.900065806   1.157732350
H       -0.022996672   4.048592921   6.089620463
H       -1.377345823   5.410940404   0.459245669
H        0.155087767  -1.516294272   5.898714233
H       -0.727086440  -0.936774902  -0.807374282
H        4.791949918   4.600553858   6.548623736
H        5.769735581   4.201133927  -0.159384520
H        6.671600952  -1.474963242   5.703889927
H        4.953000461  -0.041268573   1.501249300
H        0.927738796  -0.828680181  -0.693369955
H        0.952040169  -0.779237126   4.603064268
H       -0.422803528   6.423329616   1.398976756
H       -0.684944703   5.053029659   7.257652356
H        4.185380977  -0.592127103   0.137815504
H        4.991965265  -1.510537369   5.696435872
H        4.896172824   4.878075668   1.120574301
H        5.643377244   5.921065221   7.162772115
