CRYSTAL
PRIMVEC
11.2820 0 0
0 11.1747 0 
0 0 11.3552
PRIMCOORD
96 1
Pb       2.909341288   2.831675286   2.942156017
Pb       3.072510787   2.953398516   8.638117844
Pb       2.679510206   8.442634234   3.082917989
Pb       2.900654788   8.565960344   8.852707144
Pb       8.522817675   2.518515362   2.806398422
Pb       8.741317472   2.873323997   8.395290867
Pb       8.312425540   8.210567149   2.967634351
Pb       8.558411576   8.428917499   8.710255338
Cl       2.890165036   3.068913053   5.769384305
Cl       2.611586543   3.191572711   0.072859636
Cl       2.982338317   8.570930262   5.959909830
Cl       2.679484236   8.241089178   0.279881771
Cl       8.805609490   2.155202409   5.609968814
Cl       8.871369266   2.892150869  -0.080098372
Cl       8.222109809   8.584181018   5.866940777
Cl       8.229549560   8.057863162   0.154642516
Cl       3.310896602   0.045991696   3.149484408
Cl       2.398711277   0.180749020   8.925014477
Cl       2.113521917   5.635314032   3.232721869
Cl       3.333134963   5.774654876   8.350400450
Cl       7.665721208  -0.219945190   2.570746854
Cl       9.112388181   0.102443159   8.847613800
Cl       8.756168287   5.375112834   2.759562948
Cl       8.005139597   5.690987202   8.450166690
Cl       5.746873116   3.172100710   2.535100047
Cl       5.931786977   2.627060298   9.047676358
Cl       5.497515140   7.758036692   3.338107801
Cl       5.757708851   9.023145452   8.643531445
Cl       0.101077858   2.278867489   2.615312126
Cl       0.243789386   3.427692394   8.533503460
Cl      -0.172788882   8.805138244   3.342009658
Cl       0.111966642   8.175306529   8.230550776
C        6.074777006   4.891030411   5.679173036
C        5.272970363   6.040539823  -0.025443145
C        5.503863920   0.491206296   6.121205370
C        5.089014100   0.121937435   0.234810111
C       -0.566944262   5.601264610   5.582788074
C       -0.006495578   6.035766653  -0.396889382
C        0.661092825   0.482274443   5.880991510
C       -0.146830592  -0.580907863   0.317303112
N        0.040829228   5.163966319   0.809378143
N        0.775734001   5.648459362   6.224120342
N        0.172734446   0.768754764  -0.220246240
N       -0.405536360  -0.556424510   5.990417073
N        6.421509198   5.092173971   0.056547184
N        5.652594238   6.234261531   6.168154906
N        6.429458943   0.028440516  -0.410693718
N        5.590396920  -0.778331675   5.347780393
H        7.000920911   5.001795022   5.103319751
H        5.417781869   6.689316465  -0.895879537
H        4.601461078   1.028420078   5.808016526
H        4.352567531   0.399179479  -0.527315655
H       -0.598354292   6.354265050   4.788649835
H        0.937895063   5.928843912  -0.940589348
H        1.629250349  -0.022880625   5.803221643
H        0.724894277  -0.957942230   0.860008899
H        5.136470527   0.878655150   1.023866733
H        6.398475733   1.089898256   5.914979098
H        5.250991718   6.635399273   0.893171233
H        5.283127721   4.485939351   5.042249902
H       -0.383095570  -1.242250656  -0.523662575
H        0.628358717   1.114363447   6.773741421
H       -0.143650704   7.072339756  -0.074192870
H       -1.326752357   5.812148031   6.345241088
H        4.349813983   5.459759744  -0.127303327
H        6.232246840   4.240913170   6.546974033
H        4.838020131  -0.853254419   0.665175071
H        5.454004681   0.242219738   7.186513448
H       -0.842290735   5.713420631  -1.028121156
H       -0.716779372   4.601553192   5.160173499
H       -1.004705959  -0.499178332   0.994224329
H        0.466439503   1.079864073   4.984962145
H       -0.249070708  -1.182061470   6.799768413
H        0.975239100   0.722090082  -0.879656215
H        0.931921229   6.558045671   6.685716250
H        0.799899162   5.437119008   1.466118348
H        5.611332096  -0.596811592   4.335301525
H        6.668415833   0.918397148  -0.878483641
H        5.469975183   6.864642737   5.361819757
H        7.308464543   5.605501999   0.145329406
H        1.513693071   5.492914404   5.517910774
H        0.218943557   4.185168193   0.552269621
H       -0.426803417  -1.155631818   5.138661878
H        0.391109242   1.418794906   0.557645124
H        6.395273099   6.649431798   6.747802242
H        6.479517431   4.491695516  -0.780600249
H        4.762027954  -1.380027425   5.532580930
H        6.421521493  -0.711357041  -1.137231276
H       -0.635923164   1.154045145  -0.728395961
H       -1.327308188  -0.112295788   6.102629321
H       -0.848543970   5.196669458   1.347796509
H        0.851595749   4.914467719   6.952078287
H        7.143551847  -0.190958555   0.303493605
H        6.440995234  -1.322903033   5.592089117
H        6.316333368   4.467716652   0.883740292
H        4.799204445   6.165963995   6.759326900
