CRYSTAL
PRIMVEC
11.2820 0 0
0 11.1747 0 
0 0 11.3552
PRIMCOORD
96 1
Pb       2.953893228   2.856830467   3.066138459
Pb       3.056712968   2.734258843   8.711474709
Pb       2.843069749   8.426398108   3.023388172
Pb       2.730287090   8.296619765   8.707961587
Pb       8.731493954   2.849196546   2.896136438
Pb       8.741799987   2.839373509   8.532853705
Pb       8.492678748   8.302870235   2.821130330
Pb       8.410975378   8.417014385   8.488705817
Cl       2.821623490   2.238416407   5.882888470
Cl       3.156965317   3.350883324   0.233485730
Cl       2.593916839   8.763833025   5.867315419
Cl       2.651354020   7.973105220   0.208248783
Cl       8.639865559   2.901957817   5.696828732
Cl       8.673873093   2.658139857   0.041473296
Cl       8.266581331   7.918803058   5.629775710
Cl       8.377894478   8.609182929  -0.017081548
Cl       3.729888484   0.044002101   2.851254512
Cl       3.080270435  -0.092864796   9.184262809
Cl       2.292113540   5.648844085   3.394971460
Cl       3.013259752   5.524281482   8.538340058
Cl       8.126986025  -0.027918817   3.122507538
Cl       8.936847151   0.045904315   8.514049983
Cl       9.525832325   5.586072646   2.782900535
Cl       8.416149828   5.649657825   8.509581109
Cl       5.817247430   3.362308546   3.322333436
Cl       5.873528391   2.728917980   8.061982199
Cl       5.646702049   7.826422581   2.453759795
Cl       5.563663914   8.314356511   8.960675876
Cl       0.199301016   2.169551745   2.658637470
Cl       0.267206026   2.701673324   8.672063047
Cl       0.032845415   8.847583857   2.775082886
Cl      -0.072136866   8.361022103   8.311833683
C        5.162359555   6.167392322   5.819361685
C        6.337833329   4.998135876  -0.079701031
C        5.765277784  -0.435866917   6.352410585
C        6.124065721   0.454482981  -0.096395329
C        0.139498338   5.345042721   6.267439607
C       -0.278126458   5.604090254  -0.571369862
C       -0.479035722  -0.112756382   5.522422720
C        0.368149476  -0.105134531  -0.211980295
N        0.640347652   5.450502405   0.592549484
N       -0.012478442   6.612076043   5.493709048
N       -0.939419679  -0.046006604   0.497616282
N        0.517460699   0.060561631   6.617660764
N        5.206661526   5.964826378  -0.150005475
N        6.265584633   5.172193580   5.927850640
N        5.262517634  -0.736616359   0.151262832
N        5.832845499   0.671380675   5.355826194
H        5.352743443   6.792432938   4.939956878
H        6.320354537   4.374998634  -0.979960665
H        5.797092931  -1.392663227   5.819736202
H        6.648696246   0.324259377  -1.049717437
H       -0.616541998   4.633296862   5.918010743
H        0.319026482   5.626637803  -1.489192184
H        0.054385513  -0.192348869   4.570586612
H        0.873958172  -1.037673628   0.062087039
H        6.841199381   0.537328735   0.726080531
H        4.833508836  -0.341238136   6.920908799
H        6.206456997   4.381487893   0.815957872
H        5.146171299   6.773238510   6.731092968
H        0.965919752   0.761390812   0.090735942
H       -1.145328572   0.755377631   5.517150284
H       -0.836025146   6.539822113  -0.452838063
H       -0.010767953   5.569561107   7.327445438
H        7.277431246   5.558671468  -0.033570431
H        4.214512441   5.631266112   5.703986282
H        5.482338832   1.343025822  -0.129887952
H        6.625959329  -0.340329212   7.024607006
H       -0.966251870   4.753387368  -0.582995485
H        1.146416561   4.950180307   6.096867616
H        0.174354238  -0.072911263  -1.287609631
H       -1.052977603  -1.025749587   5.717300901
H        1.121919507   0.888834528   6.450825612
H       -0.799713181  -0.074065491   1.515951388
H       -0.954414334   7.026064617   5.629688749
H        1.281676627   6.262843282   0.656481801
H        5.021081789   0.648634412   4.714796988
H        5.820778621  -1.599967676   0.167179100
H        7.172818353   5.641573155   6.056617699
H        4.309919150   5.459383621  -0.214504443
H        0.112382855   6.435996132   4.486505128
H        1.238530307   4.609401122   0.506852577
H        1.136614121  -0.765171165   6.666518521
H       -1.548959096  -0.846243781   0.239031114
H        6.304138830   4.581880616   5.070787171
H        5.287491039   6.594564018  -0.971182226
H        6.679423643   0.594187184   4.760515581
H        4.546848426  -0.814734528  -0.594957779
H       -1.450068188   0.833970476   0.275106902
H        0.037053893   0.178823373   7.520478006
H        0.097813640   5.395202992   1.473412017
H        0.691890717   7.313069111   5.778751792
H        4.774222757  -0.633327103   1.064212267
H        5.846981626   1.581783629   5.838989606
H        5.188968059   6.565746046   0.697884914
H        6.132834687   4.525217302   6.729555409
