CRYSTAL
PRIMVEC
11.2820 0 0
0 11.1747 0 
0 0 11.3552
PRIMCOORD
96 1
Pb       2.829356236   2.703206357   2.931426870
Pb       3.008277194   2.946145188   8.616586965
Pb       2.764142147   8.325447152   2.982432527
Pb       2.882160990   8.531716232   8.642292383
Pb       8.403404937   2.736891757   2.838908962
Pb       8.661610199   2.909707656   8.573426558
Pb       8.338716014   8.321055444   2.954097009
Pb       8.638820514   8.442957669   8.602526041
Cl       2.888871459   3.241971201   5.791433673
Cl       2.782710279   3.004379397   0.121910979
Cl       3.587400761   8.468025170   5.829157784
Cl       2.167804325   8.363860989   0.144691872
Cl       8.760145611   2.547831658   5.649244284
Cl       8.747128273   2.402469913  -0.033202796
Cl       7.974230195   8.642492150   5.742490718
Cl       8.861655028   8.777072437   0.060250009
Cl       2.846421079  -0.089247845   2.788468942
Cl       3.099785061   0.124157121   8.543351967
Cl       2.252279502   5.511600854   3.020659911
Cl       3.415414971   5.733032791   8.819856900
Cl       8.099777187  -0.053491227   2.726645122
Cl       8.646185138   0.074108168   8.373353327
Cl       8.729592961   5.531994637   3.351530715
Cl       8.413895700   5.675013937   9.121060864
Cl       5.611790825   3.082082633   3.210495284
Cl       5.852028248   2.521979962   8.797464133
Cl       5.529856298   7.736496683   2.388362477
Cl       5.779534823   8.717260880   9.142917878
Cl      -0.038627835   2.306386059   2.941444273
Cl       0.197644850   3.465456697   8.445109463
Cl      -0.108132658   8.748101779   3.370732842
Cl       0.124988285   8.663894664   8.031462112
C        6.140299734   5.341723496   6.112684230
C        5.903905104   4.894907701   0.460041622
C        5.561525513   0.567966843   5.518989489
C        5.279068124   0.103644202   0.560315048
C        0.035741616   6.027460752   6.113345138
C       -0.443704728   5.507407947   0.565522522
C        0.585700858   0.344350246   5.998979225
C        0.374050782   0.219426133  -0.503019289
N        0.767907916   5.487820055  -0.305716919
N       -0.030967451   4.826141485   5.235411511
N       -0.089666681  -0.208397846   0.847175889
N       -0.743040819  -0.174423887   5.569521938
N        5.820296719   6.103942435  -0.402379157
N        5.004186323   5.648013975   5.195123627
N        6.435106846   0.069918515  -0.379595672
N        5.780773383  -0.257570275   6.739673422
H        5.744082305   5.259296323   7.131187729
H        6.107223764   4.023489452  -0.172225241
H        6.406099169   0.421071966   4.837128321
H        4.356659841   0.167443852  -0.027368101
H       -0.060079722   6.921455011   5.487309553
H       -1.117633107   6.295608098   0.211381226
H        1.241594287  -0.504934516   6.214385099
H        1.396007842   0.600882067  -0.412730635
H        5.378925161   0.976342068   1.215506888
H        5.490872839   1.618462877   5.816101397
H        4.952989051   4.770203676   0.984679066
H        6.870300000   6.156513985   6.048053172
H       -0.296001564   1.007099147  -0.862972665
H        0.449169399   0.952491515   6.900523383
H       -0.122921289   5.709790986   1.591789653
H        0.997719740   6.023490875   6.636990763
H        6.708919745   5.046527930   1.187575420
H        6.595955620   4.396090075   5.796530543
H        5.290769261  -0.812560269   1.160214029
H        4.629764431   0.241810504   5.041675721
H       -0.934185100   4.529616647   0.501684074
H       -0.779979804   5.976681393   6.842239198
H        0.344805861  -0.647578313  -1.172303914
H        0.994587417   0.952334350   5.186273386
H       -1.171021929  -0.740966314   6.313701812
H       -0.147962173   0.594610348   1.504771162
H        0.748918643   4.842252582   4.551286345
H        1.256643718   6.406243683  -0.275374825
H        6.664527748  -0.008487381   7.219918661
H        6.440456499   0.902608993  -0.994573637
H        4.558495758   6.558212078   5.438910053
H        5.019692213   6.047230974  -1.062304409
H       -0.917588426   4.822000376   4.696056055
H        0.524132382   5.250255450  -1.279676060
H       -0.645919440  -0.783556705   4.732984580
H        0.559367200  -0.894895755   1.254830423
H        4.279998306   4.904572814   5.257317748
H        6.678455662   6.199143259  -0.977737858
H        5.837773547  -1.257308226   6.503861978
H        6.373415826  -0.772114025  -0.987586159
H       -1.013716508  -0.670430830   0.790093423
H       -1.392325979   0.610434285   5.370609624
H        1.442532081   4.757084601   0.000932130
H        0.030702529   3.962786003   5.788800850
H        7.327414810   0.040935687   0.131896563
H        4.999823159  -0.133343268   7.411838987
H        5.707239823   6.945405211   0.186207391
H        5.316657181   5.700192239   4.216976833
