CRYSTAL
PRIMVEC
11.2820 0 0
0 11.1747 0 
0 0 11.3552
PRIMCOORD
96 1
Pb       3.086335653   2.777779793   2.996088716
Pb       2.818021332   2.801477351   8.712594833
Pb       3.108342628   8.354553899   2.969149203
Pb       2.852294896   8.442088091   8.589280573
Pb       8.730592587   2.806795522   3.014435529
Pb       8.424567415   2.904055089   8.683213907
Pb       8.749410853   8.333024830   2.906653694
Pb       8.438265178   8.430287944   8.499509233
Cl       3.179728662   3.247389216   5.862095111
Cl       2.361486377   2.720894506   0.176142536
Cl       3.394861873   7.971849384   5.793002284
Cl       2.685886737   8.207282288   0.076787640
Cl       8.024743839   2.746052702   5.861031847
Cl       8.973861285   2.483407794   0.169534082
Cl       7.886384632   8.452122063   5.673516434
Cl       8.885020209   8.757451885   0.010711099
Cl       3.237057658  -0.022658004   3.601812387
Cl       1.962065821   0.035514911   8.486326746
Cl       2.525789449   5.581258135   2.867028686
Cl       3.385510859   5.634678610   8.854182346
Cl       8.630280802  -0.028758081   3.053131571
Cl       8.542110554   0.082662690   8.709034103
Cl       8.402835311   5.570973673   2.519148590
Cl       7.646071720   5.689898397   8.695583897
Cl       5.954713584   2.392299937   2.638582791
Cl       5.673114144   2.404168862   9.128195613
Cl       5.956725178   8.487852864   2.306520362
Cl       5.711946346   8.853212695   9.074952174
Cl       0.321819425   2.550989435   3.568675808
Cl       0.065470018   3.547011019   8.359396847
Cl       0.332608253   8.443747345   3.695379543
Cl       0.105849122   7.652768237   8.346892916
C        5.850959309   5.485030324   4.849764509
C        5.424806595   5.052169718   0.463993104
C        5.297435424   0.084626940   6.403197365
C        5.016685012   0.025570143   0.325537997
C       -0.604541600   5.490397695   5.351445383
C       -0.303662192   5.686438590   0.460306059
C       -0.606695628  -0.018644381   6.241070438
C        0.389015441  -0.236618191   0.919947721
N        0.909682648   5.542189293  -0.389600706
N        0.789824827   5.682655067   5.842077131
N       -0.292723472   0.049377574  -0.375402646
N        0.617640364  -0.028074322   5.396608272
N        5.694148701   6.380306393  -0.154682715
N        5.418965116   5.533135367   6.274132730
N        6.494996727   0.057298298   0.140900518
N        6.247263318   0.093676652   5.255147897
H        6.371624861   4.540352917   4.671869329
H        5.171860451   4.341741413  -0.330294408
H        4.647893460  -0.791514903   6.304771410
H        4.619384145  -0.826825741  -0.234035013
H       -0.569572895   5.286659773   4.277312957
H       -0.849294894   6.583964903   0.148894115
H       -1.480881963  -0.086964894   5.584814184
H        0.820175744  -1.241269545   0.868688476
H        4.606185144   0.967660926  -0.051458106
H        4.707953756   1.006989474   6.367979369
H        4.588473504   5.163071954   1.163868665
H        6.511654643   6.333629889   4.653465223
H       -0.358981925  -0.179345926   1.717945338
H       -0.627629218   0.912683590   6.815849517
H        0.019999284   5.776347607   1.502886330
H       -1.165230557   6.412318320   5.545857348
H        6.323032012   4.728513912   0.997810865
H        4.952911799   5.548819836   4.223452114
H        4.806667230  -0.082545617   1.393409771
H        5.875312698   0.035904216   7.331837343
H       -0.931172897   4.797813467   0.334387937
H       -1.048733819   4.646658228   5.890795740
H        1.170367653   0.512920565   1.076804124
H       -0.562430672  -0.874619594   6.922267359
H        0.626771792   0.793082749   4.753139126
H       -1.002658768  -0.682650606  -0.560561010
H        1.278570514   6.392918634   5.277646487
H        1.540765499   6.358191876  -0.276583875
H        5.745879563   0.181741646   4.359891128
H        6.751254089   0.192631918  -0.850023174
H        6.209936703   5.522305163   6.943242590
H        4.856042955   6.741365001  -0.629123556
H        1.343393874   4.810270999   5.798025241
H        0.662428649   5.464460807  -1.386440963
H        0.659361126  -0.890468729   4.815578684
H        0.374047058   0.080147691  -1.167481006
H        4.793281360   4.734268651   6.476615084
H        6.430515457   6.304151964  -0.879615799
H        6.814273136  -0.775185496   5.235875992
H        6.934708485  -0.821640657   0.454826285
H       -0.809953610   0.950733962  -0.325434391
H        1.458750189   0.013188021   5.985656371
H        1.437676763   4.684100723  -0.134917907
H        0.770740806   6.020036090   6.821077507
H        6.913118138   0.830275876   0.680426013
H        6.896202823   0.902057492   5.331008603
H        5.970767670   7.080771238   0.560361381
H        4.861623395   6.390456225   6.436521803
