CRYSTAL
PRIMVEC
11.2820 0 0
0 11.1747 0 
0 0 11.3552
PRIMCOORD
96 1
Pb       2.873189810   2.649372719   2.842154338
Pb       3.077462189   2.796443026   8.480790109
Pb       2.654269480   8.427760350   2.926675278
Pb       2.761654573   8.411911868   8.604370583
Pb       8.572583662   2.871106437   2.960592586
Pb       8.656546918   2.839673521   8.524647731
Pb       8.420032471   8.398825243   3.036586203
Pb       8.482481507   8.392160848   8.634232978
Cl       2.663202068   2.297734198   5.642013263
Cl       3.098445159   3.387206460   0.001137045
Cl       2.470969385   8.926909079   5.740409798
Cl       3.250203876   8.091008574   0.123206987
Cl       9.179682745   2.869071365   5.723277044
Cl       8.782082957   2.762545832   0.106344876
Cl       8.972444920   8.818628094   5.808910512
Cl       8.123157455   8.516357223   0.193149581
Cl       3.592583049  -0.094296239   2.643231718
Cl       3.231683087   0.002272703   8.976869883
Cl       2.269593925   5.482289956   3.133071580
Cl       2.878850078   5.589830382   7.809270083
Cl       7.919222320   0.062983375   3.027818349
Cl       8.223609189   0.008970786   8.967812723
Cl       9.227167062   5.629605320   2.803038800
Cl       8.651295566   5.570187409   8.900896710
Cl       5.675506525   3.357115966   3.276390730
Cl       5.855740029   2.934442843   7.639990460
Cl       5.476686769   7.837602460   3.293950545
Cl       5.580574980   8.192873229   8.434573008
Cl       0.057107692   2.130995745   2.797073631
Cl       0.242269006   3.109359339   8.781771734
Cl      -0.146855810   9.144701664   2.618910630
Cl      -0.056527353   8.666733536   9.225271968
C        6.676722198   5.928676413   5.883658925
C        6.123932065   5.493266165  -0.214229067
C        5.720415035  -0.571244830   6.141389195
C        5.736199209   0.689421574   0.090407560
C       -0.239373860   6.135263621   6.025152765
C        0.097526320   5.980216447  -0.214504173
C       -0.110768146   0.206120746   6.742191397
C        0.570164875   0.238848485  -0.235790571
N        0.151493830   4.667280343   0.492189155
N        0.462425930   4.847534737   5.760159215
N       -0.826131889  -0.074495374   0.178836200
N        0.052468972  -0.175632204   5.312952370
N        5.240682002   5.621033993   0.981317016
N        5.240245600   5.627960573   5.624321934
N        5.598938552  -0.748213105  -0.270698648
N        5.665668113   0.649861628   5.285435430
H        7.255221764   5.642397830   4.996644989
H        7.168449955   5.518801318   0.111502055
H        5.567429640  -1.449627193   5.505334418
H        6.554972120   1.110173008  -0.501309897
H       -0.972327517   6.297582808   5.229615427
H        0.091496413   5.786634115  -1.290873292
H       -1.162696774   0.446140185   6.917767228
H        0.982381311   0.969587715   0.467089035
H        5.964093419   0.757682470   1.158670531
H        4.928438919  -0.503429475   6.893446653
H        5.921040250   6.328532482  -0.894238012
H        7.003618098   5.358454316   6.757394474
H        0.553197240   0.653027315  -1.248007057
H        0.524600172   1.069633414   6.952957355
H        0.977357801   6.567865507   0.069821708
H        0.501280890   6.943359549   6.032714916
H        5.900975213   4.540178924  -0.707283656
H        6.773386764   7.002444023   6.070989374
H        4.790409739   1.193888975  -0.133545877
H        6.701081304  -0.609418476   6.626175773
H       -0.821015896   6.499858086   0.078320656
H       -0.740851227   6.062712110   6.996934274
H        1.153355758  -0.686849516  -0.217452551
H        0.176264759  -0.651765541   7.359769712
H       -0.020223459   0.628869451   4.669442870
H       -1.409889176   0.781785536   0.221511784
H        0.976710908   4.893881521   4.861221797
H        1.022729823   4.158952734   0.247048633
H        4.759279779   0.714172755   4.803118034
H        6.463181752  -1.290929863  -0.057287269
H        5.129663666   4.649364900   5.324907280
H        5.399470012   6.504155903   1.502219589
H       -0.214785230   4.062663327   5.733667233
H       -0.659259299   4.070377872   0.241706242
H       -0.668650840  -0.872665001   5.059662130
H       -0.821596088  -0.542331231   1.103959412
H        4.906765282   6.234723935   4.855163134
H        5.393831561   4.845225596   1.654136719
H        6.403822931   0.613573852   4.555256607
H        5.411129079  -0.861580632  -1.277457369
H       -1.266000276  -0.721552461  -0.490950544
H        0.970287787  -0.637974234   5.182207660
H        0.134159554   4.802426294   1.511272462
H        1.157569476   4.668224239   6.501546879
H        4.810231880  -1.197428058   0.221149256
H        5.780734866   1.500915359   5.868844119
H        4.250297765   5.598940961   0.707108199
H        4.638505405   5.773610956   6.460005778
