CRYSTAL
PRIMVEC
11.2820 0 0
0 11.1747 0 
0 0 11.3552
PRIMCOORD
96 1
Pb       3.007924186   2.764150441   3.140475078
Pb       3.074178862   2.767870538   8.846661401
Pb       2.778114972   8.376391303   3.136105109
Pb       2.863388307   8.298777725   8.746665815
Pb       8.526317887   2.819417627   2.842745920
Pb       8.689382327   2.858329142   8.568422732
Pb       8.374686468   8.465293783   2.923243897
Pb       8.519006699   8.450257661   8.474692480
Cl       3.326800186   2.409962122   6.027329408
Cl       2.462175801   2.490875342   0.335996052
Cl       3.261280053   8.585274298   5.951174001
Cl       2.530755378   8.778275061   0.274514832
Cl       8.305942893   2.985408382   5.748465542
Cl       9.050841330   3.319163218   0.068899271
Cl       7.819373899   8.580116384   5.732701681
Cl       8.272671665   8.266234573   0.017051787
Cl       2.392092064  -0.012727557   3.294925562
Cl       3.489837597  -0.080222459   8.795746484
Cl       2.588690589   5.544534344   2.918112315
Cl       2.360347420   5.508007087   9.160483678
Cl       8.898363932   0.040773379   2.456950371
Cl       7.697723303   0.061515738   8.580445471
Cl       8.261401130   5.650624480   3.100190603
Cl       9.121044596   5.656032513   8.134976047
Cl       5.739135280   2.986732596   2.359196724
Cl       5.950198189   3.637617103   8.854305893
Cl       5.553576016   8.714770818   2.660616082
Cl       5.751786373   7.721375475   8.794508126
Cl       0.094966640   2.975130091   3.250173712
Cl       0.314347541   2.353378518   8.304463724
Cl      -0.091453315   8.215565747   3.501340970
Cl       0.129940203   8.849977933   8.185382968
C        5.283937740   5.495189548   5.305863453
C        5.036015842   5.799669807   0.434678387
C        5.922576560   0.354582537   4.852508652
C        5.754652052   0.315305660   0.378697973
C        0.732682264   5.561190119   6.164397128
C       -0.357794678   6.258085304   0.270042779
C       -0.650899638   0.109241930   5.668951929
C       -0.477960170  -0.028907184  -0.452268172
N        0.533055664   5.071925966   0.398074384
N       -0.401803115   5.486436847   5.199413937
N        0.405430183   0.044378976   0.745006255
N        0.769610667   0.036074795   6.111605511
N        6.445109932   5.507588100   0.049809402
N        6.493034049   5.639891467   6.164129223
N        5.606570263  -1.010213123  -0.286220128
N        5.455645488  -0.142192807   6.176215075
H        5.609471895   5.434565907   4.261379755
H        4.575913754   6.383638789  -0.368101957
H        6.823482454  -0.196243361   4.565353093
H        6.579785873   0.853537663  -0.100111784
H        0.569527761   6.418518281   6.825842960
H       -0.891561238   6.183765826  -0.683986230
H       -0.862910936  -0.762186069   5.040868005
H        0.145635510  -0.038839078  -1.351512355
H        5.972638094   0.146553869   1.436961238
H        6.138028595   1.423667910   4.943947664
H        5.039180144   6.362220169   1.373058351
H        4.641252810   6.369056588   5.460550028
H       -1.134019133   0.848079243  -0.447011137
H       -0.790117539   1.034290520   5.100435942
H        0.259652522   7.162849973   0.298846596
H        1.659814701   5.679584387   5.592840239
H        4.510517480   4.848406540   0.565014496
H        4.761169194   4.576333684   5.595841312
H        4.817232598   0.871149133   0.263519153
H        5.126622078   0.181526657   4.120126267
H       -1.070115449   6.248980867   1.101501852
H        0.752846612   4.637742090   6.753139643
H       -1.076792307  -0.943979327  -0.385658097
H       -1.292460162   0.106855568   6.558026333
H        1.413105902   0.026639337   5.298045284
H        0.996833848   0.899766370   0.724625616
H       -0.449647597   6.350554113   4.621918654
H        1.191405709   5.032934675  -0.405568579
H        6.208467250  -0.113095520   6.892282583
H        6.455712202  -1.595679282  -0.172310006
H        6.989211433   6.528493772   5.960119854
H        6.988932550   6.379226154  -0.088542413
H       -1.289491725   5.368506322   5.705946883
H       -0.030424952   4.207720048   0.406567550
H        0.910430877  -0.821199823   6.675196830
H        1.058432655  -0.761024866   0.771313129
H        7.149032425   4.847689759   6.013965698
H        6.460010597   4.952380538  -0.830686893
H        5.093848040  -1.109006704   6.115390039
H        5.424876943  -0.888943971  -1.292982484
H       -0.163768796   0.051343112   1.606865703
H        0.988964288   0.849130577   6.714282213
H        1.098264479   5.106923410   1.266557436
H       -0.287625232   4.678245300   4.552116078
H        4.807667941  -1.529873726   0.111861012
H        4.675382190   0.444853553   6.514952317
H        6.915572896   4.956542690   0.780081859
H        6.249413816   5.647446123   7.164803877
