CRYSTAL
PRIMVEC
11.2820 0 0
0 11.1747 0 
0 0 11.3552
PRIMCOORD
96 1
Pb       2.756821061   2.772473370   2.821047185
Pb       2.791954994   2.847515158   8.537878065
Pb       2.778432440   8.463358360   2.867546982
Pb       2.895860603   8.394960108   8.560263022
Pb       8.489125357   2.790691628   2.931397485
Pb       8.507211177   2.863393234   8.694313956
Pb       8.515002065   8.325995748   3.024329300
Pb       8.547267339   8.309322798   8.699778408
Cl       2.821887956   3.088823387   5.655556288
Cl       3.164593974   2.356508035  -0.021156841
Cl       2.609897970   8.368582835   5.732119495
Cl       3.003009455   9.009599879   0.051323983
Cl       8.527357812   2.309395086   5.790660288
Cl       8.190492883   3.444556029   0.111941492
Cl       8.632418992   8.942026435   5.865868796
Cl       8.461896828   7.646161821   0.181735717
Cl       2.022133362   0.040446216   3.226753498
Cl       3.118578176   0.032630762   8.372284781
Cl       3.080718419   5.612656333   2.683872235
Cl       3.003440098   5.600655429   8.451766642
Cl       8.775954045  -0.024637382   2.795986418
Cl       8.386580050   0.012458372   9.113249354
Cl       8.173382278   5.549387650   3.556800392
Cl       8.228427930   5.579035231   7.986143808
Cl       5.626628563   2.849093136   3.016080955
Cl       5.648395245   2.666076516   8.363825830
Cl       5.666611378   8.438210810   2.755702646
Cl       5.739464673   8.628616269   8.572988863
Cl      -0.010444728   3.441536539   2.944145052
Cl       0.004121724   2.955806958   9.312139420
Cl       0.025646623   7.733448703   2.777797230
Cl       0.087308029   8.570706896   8.847464318
C        5.290306482   5.991504967   5.720555299
C        5.211784268   5.685482440  -0.221216435
C        5.284750832  -0.104641339   5.372175387
C        6.337819351   0.032865850   0.573486828
C       -0.273036215   5.589919447   6.134712922
C        0.824814735   5.795766070  -0.214043499
C        0.335611561   0.226322662   6.491123492
C       -0.257323719  -0.102281608   0.436757296
N       -0.472020287   5.426847200   0.417007634
N        0.938844542   5.682059944   5.273994637
N        0.626818039   0.043053589  -0.754151668
N       -0.486015307   0.057376166   5.264269190
N        5.936235846   5.656053259   1.081163255
N        5.950209866   4.655480079   5.754616957
N        5.351817607   0.001570581  -0.542886642
N        6.143248726  -0.039406614   6.589300487
H        5.607746717   6.512205917   4.810262420
H        5.553286819   6.558078720  -0.789842858
H        5.524471375  -1.022994220   4.824429542
H        6.913862694  -0.897599355   0.555626260
H       -0.852279929   4.707613192   5.839447269
H        1.511194453   4.946664026  -0.124151427
H       -0.338446803   0.314820127   7.351626337
H       -1.296765803  -0.074028371   0.094248199
H        5.797530545   0.122071136   1.521059632
H        5.492826530   0.772895644   4.749286549
H        4.139309844   5.755849416  -0.016078187
H        5.595282104   6.550454912   6.612505647
H       -0.056860561   0.720293186   1.130849237
H        0.948474070   1.127364153   6.374971639
H        1.226636873   6.671245488   0.306675990
H       -0.878736162   6.492103042   5.992917980
H        5.437618841   4.764040347  -0.769639455
H        4.207747116   5.842001925   5.719227768
H        7.001310757   0.891240105   0.425998825
H        4.235978450  -0.110863391   5.688921942
H        0.649738187   6.026513451  -1.268542659
H        0.047333929   5.508465615   7.179497527
H       -0.040063669  -1.059096248   0.924947772
H        0.982970188  -0.648553782   6.599942126
H       -1.147272078   0.846218616   5.156363415
H        0.444744503   0.946543461  -1.232694009
H        0.683475621   5.751722758   4.279330690
H       -0.335589085   5.138333386   1.401044023
H        7.142169614  -0.040023482   6.346275246
H        4.691520641  -0.794984019  -0.442205152
H        6.973584910   4.763713221   5.772549067
H        5.760223320   6.518981149   1.634519507
H        1.550922815   4.849167759   5.387992588
H       -0.913742599   4.627844352  -0.062970368
H       -1.077095790  -0.795372946   5.327416654
H        0.459931897  -0.737765135  -1.421496128
H        5.713359137   4.093146959   4.916073982
H        6.951179184   5.588368830   0.928631175
H        5.977647775  -0.857282674   7.211304539
H        5.836283457  -0.097244995  -1.443810727
H        1.621413292   0.012202990  -0.495168334
H        0.125825855   0.000249823   4.428255618
H       -1.151293071   6.215902497   0.396257485
H        1.499253668   6.530410443   5.501600908
H        4.772265568   0.861695992  -0.561154449
H        5.952556530   0.819393010   7.139947369
H        5.653484019   4.848823443   1.659836001
H        5.683827177   4.113446601   6.595401240
