CRYSTAL
PRIMVEC
11.2820 0 0
0 11.1747 0 
0 0 11.3552
PRIMCOORD
96 1
Pb       2.905926933   2.798634487   2.619153192
Pb       2.875612524   2.708667925   8.298380209
Pb       2.835358959   8.483362095   2.728001384
Pb       2.909021749   8.336177919   8.423038183
Pb       8.623147266   2.849099732   3.081394354
Pb       8.503839395   2.827627316   8.849788324
Pb       8.544817906   8.444327161   3.170785623
Pb       8.478819143   8.312488591   8.903886228
Cl       3.237597582   3.230155752   5.444971129
Cl       2.309872895   2.761995853  -0.236636837
Cl       3.296158722   7.983967306   5.517329648
Cl       2.224195318   8.387767331  -0.155622800
Cl       8.285574858   2.638575203   5.957400737
Cl       8.933457994   2.354888519   0.281483712
Cl       8.061110519   8.676543109   6.040292684
Cl       8.884884887   8.789455383   0.340028538
Cl       2.877439376   0.061092980   2.992308060
Cl       3.375257348  -0.079280728   8.153530450
Cl       3.170798913   5.655855174   2.427221273
Cl       2.366803799   5.527992183   8.346170418
Cl       8.761816992   0.059646797   3.353195917
Cl       8.171773010  -0.023502014   8.976512568
Cl       7.913631531   5.654862029   2.996719897
Cl       9.162497345   5.571090779   9.234727558
Cl       5.801780873   2.611243014   2.515931220
Cl       5.650990586   2.801264464   8.599009680
Cl       5.733800786   8.680922912   2.490931903
Cl       5.656190124   7.978518562   9.297244009
Cl       0.170320912   3.182403250   3.418444476
Cl      -0.038222266   2.228195419   8.267060503
Cl       0.091200876   8.062819182   3.497207319
Cl       0.015795762   8.812283654   8.235145853
C        5.974056817   5.602410767   6.418519034
C        5.752207355   4.977624242  -0.369340606
C        5.343414724   0.088106508   5.207057454
C        5.157832908   0.087497935  -0.190002779
C       -0.591269681   5.580240538   6.050337714
C       -0.316385233   5.591098049   0.848367606
C        0.588259630   0.020365093   5.481692886
C        0.331626207  -0.003574948   0.705871172
N        0.611434630   5.555951479  -0.316957126
N        0.784016339   5.608705561   5.480030233
N       -0.175081711  -0.055995085  -0.693732832
N       -0.763560962  -0.040824120   6.108348014
N        5.732144983   6.121170320   0.583085672
N        5.353646495   5.580850145   5.063168880
N        6.394873917   0.057065489   0.642423495
N        6.209011655   0.166241802   6.417275900
H        5.171117090   5.584284651   7.164026999
H        6.633455694   5.080406927  -1.010952316
H        5.987195231   0.031554025   4.323492964
H        5.176081700   0.985351019  -0.816750778
H       -1.311347534   5.614837738   5.224158221
H       -0.957616061   4.704237509   0.801757544
H        0.673623691   0.962746560   4.930632142
H       -0.025784476  -0.894275460   1.234007449
H        4.294471724   0.103742003   0.485743240
H        4.718399023   0.985122606   5.166265810
H        4.845513959   5.017695979  -0.981500269
H        6.562719689   6.521024753   6.515601997
H       -0.055638116   0.905253477   1.178416510
H        0.689946146  -0.828663019   4.799450121
H       -0.920353559   6.502537072   0.779352331
H       -0.713777934   6.449583975   6.705263859
H        5.790478018   4.044067583   0.201978995
H        6.605430027   4.714115992   6.526212653
H        5.137615151  -0.808772930  -0.818769249
H        4.717205272  -0.806775793   5.282300230
H        0.276930780   5.590945445   1.767384948
H       -0.713188938   4.653545549   6.621331264
H        1.422900178   0.014344591   0.677265881
H        1.343176345  -0.033568943   6.274573460
H       -1.501929198  -0.011788042   5.383356764
H       -1.205469528  -0.080886818  -0.720088879
H        0.911577965   6.465749962   4.913337505
H        0.066889775   5.555142910  -1.194254023
H        6.824334969   1.001874510   6.379866180
H        6.423463692   0.890501158   1.262065965
H        4.736253042   6.408749212   4.950247650
H        5.731061307   7.012332325   0.058992635
H        0.925918001   4.787812928   4.863857395
H        1.207292824   4.703686212  -0.309019097
H       -0.883730655   0.760862631   6.751928197
H        0.155312231  -0.898878136  -1.194143943
H        4.749237243   4.740593155   4.966239752
H        6.543408540   6.103908979   1.225355992
H        6.817511294  -0.670900483   6.482162984
H        7.239517270   0.050097638   0.054524530
H        0.111071467   0.772973617  -1.245046182
H       -0.858045381  -0.906708149   6.665560679
H        1.228186281   6.392255867  -0.322601681
H        1.492579522   5.590375588   6.235725588
H        6.394551177  -0.790530650   1.242391412
H        5.632470766   0.228480687   7.270113256
H        4.881696314   6.083910401   1.181747101
H        6.073336329   5.580253043   4.318664022
