CRYSTAL
PRIMVEC
11.2820 0 0
0 11.1747 0 
0 0 11.3552
PRIMCOORD
96 1
Pb       2.944447459   2.823790033   3.101625091
Pb       3.121807543   2.606723404   8.755879465
Pb       2.708875616   8.312816742   3.011203415
Pb       2.977554827   8.249091476   8.718098383
Pb       8.484341688   2.869045906   2.914374128
Pb       8.557185647   2.748436421   8.545647142
Pb       8.397730970   8.523987509   2.798284870
Pb       8.513617957   8.266120875   8.542091485
Cl       2.779265473   3.319191444   5.966599092
Cl       2.952861380   2.260869700   0.270433040
Cl       3.133264135   7.648644823   5.828744625
Cl       2.922953264   8.779117534   0.155286160
Cl       8.885785095   2.699697265   5.702919017
Cl       8.968948024   2.588780481   0.029563568
Cl       7.944889390   8.437436122   5.676386046
Cl       8.723170911   8.656952718  -0.019346831
Cl       3.161859608  -0.054875557   3.628273497
Cl       3.148304274  -0.208181016   7.906858840
Cl       2.557281692   5.513365299   2.354985124
Cl       2.554452853   5.359192645   9.288913547
Cl       7.497572702   0.131072394   2.992481476
Cl       8.213824374  -0.093469980   8.437644848
Cl       8.625085847   5.702885127   3.125423114
Cl       9.305719441   5.480875650   8.584064264
Cl       5.682887825   3.559919453   2.883461943
Cl       5.809597468   3.278732115   9.017032927
Cl       5.570291871   8.077272971   2.564495277
Cl       5.746226200   7.832176346   8.940370440
Cl       0.101440528   2.638272998   2.989444337
Cl       0.209262428   2.390291566   8.615762461
Cl      -0.052548289   8.530118296   3.126467658
Cl       0.141145314   8.494544229   8.520335451
C        6.095313870   5.136745947   6.238740396
C        6.557988573   5.485156684   0.135629544
C        5.767980802   0.893449277   6.019304884
C        5.901103291  -0.011185617  -0.443690342
C       -0.223797949   5.716948941   5.370510409
C       -0.167117227   6.044693418   0.336925044
C       -0.388156698  -0.248834915   5.796084291
C        0.133280971  -0.116415572   0.494904202
N        0.231743284   4.628202773   0.082218020
N        0.613626441   5.645694635   6.602963923
N       -0.450377026  -0.160525545  -0.873624728
N        0.529709370   0.924407440   5.726524655
N        5.095681410   5.779026874   0.154927893
N        5.843961913   6.017347473   5.065138827
N        5.129029533  -0.074706685   0.830164252
N        5.546385810  -0.553086670   5.738704019
H        5.326234263   4.358237528   6.259816438
H        6.693784363   4.400334336   0.141414868
H        6.587566963   1.249387448   5.389167426
H        6.632347598  -0.826059173  -0.452290502
H        0.433419207   5.691925920   4.494055760
H       -0.836552168   6.363158042  -0.466805563
H       -0.339725903  -0.787848021   4.844100211
H       -0.143407305  -1.035950078   1.020481356
H        6.411831320   0.956453627  -0.497818805
H        6.024481603   1.003981663   7.077561090
H        7.007134775   5.930711460   1.027886266
H        6.039873891   5.742943487   7.149771525
H       -0.263439543   0.762856888   1.013103118
H       -1.401771120   0.118011636   5.987073361
H        0.738848610   6.659898125   0.347445560
H       -0.793589442   6.651782844   5.384253263
H        6.982489995   5.916313577  -0.775880501
H        7.090216449   4.690461420   6.130083985
H        5.205060844  -0.120813859  -1.284042905
H        4.838864504   1.428960893   5.793353637
H       -0.673450604   6.097153382   1.306412700
H       -0.904739130   4.860646815   5.363377918
H        1.221993915  -0.041902059   0.409950506
H       -0.058977610  -0.900213908   6.613167860
H        0.274082483   1.553691327   4.940173913
H       -1.477300727  -0.212801981  -0.839178839
H        1.265734571   6.443350978   6.639556773
H        0.803547805   4.574276199  -0.777225121
H        6.410408741  -1.122704613   5.840376053
H        5.770520693  -0.001399378   1.646658521
H        4.923167084   6.485157898   5.153336412
H        4.638258757   5.378331225   0.989841934
H        1.201318811   4.792573368   6.601705439
H       -0.593284107   4.001777734  -0.012650858
H        1.503572843   0.627082609   5.579144445
H       -0.137243423  -0.995717773  -1.407195230
H        5.868762413   5.473733739   4.185541343
H        4.616435749   5.408016416  -0.680866881
H        5.191055971  -0.670244344   4.777514373
H        4.609422867  -0.965890522   0.892035841
H       -0.203287316   0.683606113  -1.426220852
H        0.490838628   1.474373593   6.605413935
H        0.808902346   4.275359600   0.857549080
H        0.011602314   5.650447879   7.445890307
H        4.429785876   0.690080357   0.860650076
H        4.817236247  -0.909934719   6.378049202
H        4.924475179   6.794406691   0.183433789
H        6.562176935   6.761740449   5.014238275
