CRYSTAL
PRIMVEC
11.2820 0 0
0 11.1747 0 
0 0 11.3552
PRIMCOORD
96 1
Pb       2.704393047   2.739029465   2.982332461
Pb       2.735851542   2.748748826   8.683137861
Pb       3.094051799   8.485082614   2.828077554
Pb       3.053203321   8.441512640   8.563870660
Pb       8.396242422   2.786979404   3.043465511
Pb       8.282832712   2.885634151   8.663035023
Pb       8.624899527   8.446383476   2.875126926
Pb       8.637269552   8.522696000   8.510254536
Cl       2.243868193   2.274810985   5.846170286
Cl       3.355508462   3.031688221   0.183055115
Cl       3.337647256   8.958914366   5.684080962
Cl       2.698303129   7.977296036   0.025094151
Cl       8.758144928   2.925231817   5.860675853
Cl       7.809718168   2.807275624   0.194034101
Cl       8.698837880   8.549129587   5.682934637
Cl       9.202273423   8.413970207   0.024298821
Cl       3.685122726   0.090421789   2.672398511
Cl       3.611127932   0.069910913   8.815808980
Cl       2.658323560   5.620986763   3.139772233
Cl       2.720104043   5.600014862   8.024736785
Cl       8.100323924   0.016456905   2.574280500
Cl       8.046520239   0.105562916   8.975206874
Cl       8.761555394   5.569754850   2.560939068
Cl       8.913196197   5.684654648   8.658296223
Cl       5.485686493   3.205959085   3.563242459
Cl       5.457262904   3.142935081   8.003234703
Cl       5.811600135   7.693785266   2.898815244
Cl       5.829941211   8.022234609   8.375732276
Cl      -0.131217784   2.444119669   2.384806821
Cl      -0.168966079   2.444901022   8.978306741
Cl       0.215161322   8.809964973   2.985659432
Cl       0.223305228   8.899247922   8.306879172
C        6.491581340   5.671429364   5.790398065
C        5.886754217   5.980506405  -0.375861536
C        6.321583973  -0.225502300   5.774829542
C        5.775092504  -1.062518306   0.136376011
C       -0.239769302   5.828009185   5.473018781
C        0.351439589   5.199036834  -0.212289015
C       -0.597508854   0.381503945   5.668407435
C        0.716678797  -0.031570981   0.006967399
N        0.201156470   6.078509648   0.981478001
N       -0.045605058   4.930757010   6.644604742
N       -0.757843798   0.185739838   0.022344686
N        0.516629226  -0.604539499   5.645885166
N        5.719963423   5.161945920   0.857900323
N        5.036089940   5.985029360   5.702706345
N        5.570553009   0.405686474   0.004911646
N        5.190701268   0.747407682   5.767653266
H        6.605512762   4.585529240   5.804251621
H        6.876102202   6.451775812  -0.351667185
H        7.259854427   0.334086446   5.854767748
H        6.504489605  -1.381481644  -0.612948358
H        0.591000063   5.686136856   4.772994798
H        1.281300827   5.469072474  -0.725908289
H       -0.482787036   1.056133460   4.813789388
H        1.212782696   0.945060684   0.028538175
H        4.812644499  -1.557855492  -0.033284307
H        6.294688037  -0.794166798   4.840175973
H        5.099230745   6.740154415  -0.398262765
H        6.883010007   6.112063102   6.711165301
H        0.974371044  -0.577680850  -0.906546798
H       -0.540342916   0.948566468   6.603146885
H       -0.510957916   5.356576674  -0.869147798
H       -0.264175868   6.862788101   5.832494193
H        5.803134583   5.324342502  -1.250038971
H        6.988564097   6.100121464   4.914915139
H        6.136533808  -1.272051636   1.146249081
H        6.198198902  -0.895049684   6.632683780
H        0.384489475   4.158485096   0.127232667
H       -1.193617339   5.580327077   4.995431073
H        0.986758506  -0.619082283   0.890743458
H       -1.543186898  -0.166239660   5.605979801
H        1.420447541  -0.114665561   5.667056150
H       -1.050249974   0.714601759  -0.813578784
H        0.869761242   5.120376587   7.102999092
H        0.152868785   7.068920842   0.710163473
H        5.239146728   1.387852110   4.953216031
H        5.123269131   0.610024249  -0.905541508
H        4.514596238   5.609019115   6.514381034
H        5.761595449   5.763933178   1.699257191
H       -0.080988200   3.939183038   6.380344809
H        0.999374701   5.968996443   1.633290540
H        0.477681448  -1.200302375   4.794492686
H       -1.032003909   0.728455186   0.855577364
H        4.624602391   5.585374380   4.846251207
H        6.469222723   4.448094237   0.906269892
H        5.196142604   1.346503177   6.614920208
H        6.452980563   0.944401509   0.073243480
H       -1.270098631  -0.722256002   0.031846078
H        0.469323045  -1.229975618   6.480507482
H       -0.675861694   5.855347432   1.498973274
H       -0.798166250   5.095752128   7.348375071
H        4.932870282   0.735328165   0.747834968
H        4.293114739   0.247334487   5.732122453
H        4.822847092   4.645809961   0.841066902
H        4.862761704   7.003000378   5.684430993
