CRYSTAL
PRIMVEC
11.2820 0 0
0 11.1747 0 
0 0 11.3552
PRIMCOORD
96 1
Pb       2.769380176   2.681666971   3.129800330
Pb       3.015225947   2.774634597   8.819611264
Pb       2.774536479   8.330890370   3.031899157
Pb       2.989168636   8.489605188   8.725011826
Pb       8.443153382   2.895721521   2.829393549
Pb       8.639299850   2.854011704   8.509041606
Pb       8.433198991   8.408835291   2.789857272
Pb       8.535189916   8.485364087   8.574790490
Cl       2.830308922   3.293591408   5.997177387
Cl       2.967130589   2.386074489   0.314590078
Cl       2.772780923   7.966112891   5.907624496
Cl       2.504037208   8.318293936   0.191958107
Cl       8.116221569   2.427383159   5.660735573
Cl       8.676972814   3.311268863  -0.018364824
Cl       8.454736801   9.068049242   5.667888735
Cl       8.727073898   7.773008002  -0.001022776
Cl       2.822376710  -0.069386225   3.808804426
Cl       2.521530609   0.074479027   8.293324779
Cl       3.381633853   5.517955032   2.947756790
Cl       2.851829034   5.641172489   9.117995238
Cl       8.426545781   0.088408849   2.106426272
Cl       8.533807331   0.094014855   9.338823978
Cl       8.056595383   5.662980853   3.406274617
Cl       9.000567149   5.669505170   8.081367394
Cl       5.604565172   2.459148455   2.993198848
Cl       5.859274018   2.862205236   8.745658332
Cl       5.574019768   8.675702189   2.606853665
Cl       5.788335299   8.067101766   8.922284859
Cl      -0.049560838   2.511608792   2.920206352
Cl       0.208211266   3.087206388   8.911243300
Cl      -0.056764875   8.311390997   3.242707240
Cl       0.143018042   8.390493164   8.464986001
C        5.873366140   5.850782831   6.334794144
C        6.098729128   5.314061619   0.104001089
C        5.418047047  -0.089061135   6.252681316
C        5.287846189  -0.223239542  -0.358236899
C       -0.031301992   5.237632108   5.209815870
C        0.435006163   5.356239683   0.711677293
C       -0.344449055   0.424306555   6.111820382
C        0.443518980  -0.311484344   0.133074398
N       -0.054944325   5.896108726  -0.585281247
N        0.560714631   5.656754970   6.510028266
N       -0.321061413   0.965405946   0.061411824
N        0.381643304  -0.848669901   5.846454437
N        4.930168299   6.228149721   0.222586836
N        5.696645432   4.671034727   5.439853142
N        6.052447731   0.976196071   0.081191986
N        6.062846562  -0.173595183   4.912116645
H        6.820100399   6.340081775   6.081124804
H        6.640553038   5.549954813  -0.817090330
H        4.373104391   0.209791140   6.126563558
H        4.349209355   0.106837632  -0.817576636
H        0.776929778   5.143591302   4.476162299
H        1.399143841   4.862577289   0.544520747
H       -0.420188893   0.986223098   5.174237621
H        0.336384807  -0.841655666  -0.819521554
H        5.083663077  -0.848958217   0.518012570
H        5.961674112   0.650563855   6.852458294
H        5.724945459   4.285761025   0.071570490
H        5.892236810   5.500585621   7.371483286
H        0.036612668  -0.916155840   0.952003099
H        0.222418462   0.993590113   6.857616470
H       -0.299895226   4.634561365   1.082226733
H       -0.752172633   5.995033481   4.885840867
H        6.751650429   5.461476762   0.970610722
H        5.028566062   6.531113383   6.181245760
H        5.899129671  -0.772342715  -1.081152942
H        5.476565477  -1.076711379   6.726845994
H        0.546065836   6.189762767   1.414087114
H       -0.533549912   4.273721819   5.348105390
H        1.495590643  -0.073984690   0.317253959
H       -1.344711319   0.180459477   6.484324571
H        1.326104874  -0.663231673   5.466609989
H       -1.314752381   0.785867513  -0.147935325
H        1.113424731   6.529963048   6.407952251
H       -0.206009274   5.134006400  -1.265661115
H        6.085961768   0.745366037   4.437401500
H        5.515208015   1.528125467   0.768072482
H        6.464256895   3.981504957   5.558471955
H        4.276737433   6.111544610  -0.575863452
H        1.210671599   4.935417670   6.855187680
H        0.632119141   6.545723709  -0.991323648
H       -0.109927207  -1.432730346   5.148211674
H        0.033363348   1.589471719  -0.683505680
H        5.696697822   4.953849709   4.451812264
H        5.221925194   7.211698908   0.242672288
H        5.566407692  -0.825773883   4.281468172
H        6.264758727   1.587788323  -0.725829949
H       -0.270637264   1.481280990   0.960197775
H        0.473712259  -1.414190656   6.710457276
H       -0.948288834   6.419867827  -0.458209249
H       -0.190723979   5.802076637   7.210359852
H        6.941840608   0.697964967   0.541291626
H        7.029782648  -0.537425941   5.017667158
H        4.399173519   6.038163241   1.097804509
H        4.792437258   4.194037862   5.631467299
