CRYSTAL
PRIMVEC
11.2820 0 0
0 11.1747 0 
0 0 11.3552
PRIMCOORD
96 1
Pb       3.073322661   2.887781934   2.751966128
Pb       2.965104601   2.751238682   8.480955724
Pb       2.879330173   8.411184153   2.833481960
Pb       2.658972178   8.337726673   8.432554117
Pb       8.771325173   2.779716997   3.009056722
Pb       8.493854559   2.845941003   8.716474578
Pb       8.511383162   8.350466860   3.158492491
Pb       8.249021670   8.359941945   8.835155427
Cl       3.367084846   3.403129764   5.621070363
Cl       3.110167817   2.083616047  -0.082592219
Cl       2.513816641   7.628675134   5.595823530
Cl       2.665225963   8.858093260  -0.078131107
Cl       8.615810969   2.332355231   5.851663798
Cl       8.380619417   3.064538816   0.179670030
Cl       8.677193892   8.684007380   6.025142332
Cl       8.229227708   7.981508275   0.329343118
Cl       3.199800357   0.081155276   3.356196233
Cl       2.407414632   0.025288495   7.869560370
Cl       3.024271836   5.669601234   1.966257181
Cl       2.394630970   5.570139726   8.895864284
Cl       8.035829658  -0.022632366   2.842188498
Cl       8.607069805   0.054528684   9.315618215
Cl       8.544747823   5.530088676   3.167736737
Cl       8.771095736   5.647897375   8.680478549
Cl       5.901374357   2.923196411   2.826294444
Cl       5.709624531   2.265888512   8.437101366
Cl       5.680255522   7.990882667   3.314363179
Cl       5.449422344   7.985612123   8.353647618
Cl       0.309542042   3.052620142   3.399504498
Cl       0.049597320   2.668148274   8.518403122
Cl       0.050776366   8.342360717   2.672536148
Cl      -0.183195360   8.605342798   8.903179169
C        6.468881863   5.123993919   5.980741591
C        5.539334823   5.233215131  -0.491214575
C        5.768423701  -0.470451527   6.212174406
C        5.506142908  -0.591337109   0.251240177
C       -0.505807157   6.036577779   5.882118564
C       -0.335385587   5.242390290   0.197703100
C        0.104008911  -0.257136168   5.098901336
C       -0.155727747   0.345117657   0.587452132
N        0.396505820   6.529134496   0.046694659
N        0.513265861   4.959735625   6.046157904
N        0.489735970   0.141047663  -0.739973981
N       -0.538391108  -0.048382612   6.426644860
N        6.101405716   5.629128465   0.829239906
N        5.279413320   6.000727081   5.810641893
N        6.194683115   0.717579130   0.087611628
N        5.712877415   0.664532355   5.246620767
H        7.353672345   5.751370412   6.129763504
H        6.372343136   5.047021451  -1.178261588
H        5.848233338  -1.402045806   5.641878897
H        5.182740181  -0.943712427  -0.734087051
H       -0.264007943   6.600772587   4.975143373
H       -0.127783342   4.616653160  -0.677741184
H        0.763040347   0.589361584   4.883037759
H       -1.230858021   0.485991911   0.430258970
H        4.633897500  -0.443172533   0.895471297
H        4.851975420  -0.456515235   6.810832752
H        4.912956333   6.048078680  -0.869275125
H        6.581278526   4.512111901   5.080635972
H        0.285348087   1.233207424   1.055708115
H       -0.685481729  -0.328238744   4.341559717
H       -1.404999847   5.459741971   0.261213024
H       -0.469704351   6.689712146   6.758902764
H        4.933410993   4.329503798  -0.356068357
H        6.302168586   4.483701491   6.854018818
H        6.209894506  -1.301149533   0.699362008
H        6.645609476  -0.340698746   6.854693825
H        0.009460933   4.755276574   1.117776521
H       -1.492185262   5.572684871   5.793934519
H        0.028201639  -0.542509457   1.204255785
H        0.681054886  -1.187840521   5.133863575
H       -1.133415573   0.802221693   6.412441899
H        0.326834192   0.947091318  -1.370460888
H        1.454434666   5.372788741   6.121853146
H        0.106148512   7.045860690  -0.801573644
H        4.876887030   0.573963063   4.629734261
H        5.548140376   1.414258214  -0.310052101
H        5.365196885   6.604349131   4.967330413
H        6.740432687   6.446564415   0.738107479
H        0.512535221   4.314149841   5.230922619
H        1.411543558   6.378301225  -0.019070867
H        0.188547047   0.049815034   7.155309195
H        0.128764998  -0.707497684  -1.217036845
H        5.166954585   6.633098326   6.626162927
H        6.645202163   4.861252540   1.247917968
H        6.544360352   0.674927939   4.633051512
H        7.011815210   0.630515619  -0.547026780
H        1.507362491   0.021344141  -0.638915365
H       -1.151321003  -0.855115389   6.645060443
H        0.232697484   7.150317955   0.865208588
H        0.343151911   4.399244908   6.897344374
H        6.533650964   1.076730045   0.991556517
H        5.660989738   1.565794193   5.738186415
H        5.337370852   5.864910594   1.484532962
H        4.427279709   5.420633696   5.714904325
