CRYSTAL
PRIMVEC
11.2820 0 0
0 11.1747 0 
0 0 11.3552
PRIMCOORD
96 1
Pb       2.892377257   2.965512653   2.869568235
Pb       3.128461555   2.952918521   8.631163198
Pb       2.633555385   8.526520608   2.907664695
Pb       2.869716640   8.496462160   8.484465241
Pb       8.537990627   2.735950731   3.000609377
Pb       8.687614522   2.732908850   8.760918670
Pb       8.410003325   8.422150186   2.974630382
Pb       8.509600766   8.306501899   8.571047024
Cl       3.198416352   2.579100108   5.716427541
Cl       2.427442346   3.337466205   0.029149802
Cl       3.489066880   8.767583902   5.652078937
Cl       2.492513723   8.186516383   0.004705012
Cl       8.766680893   2.841794950   5.862429043
Cl       9.169147966   2.596643248   0.202656877
Cl       7.950655617   8.177190320   5.764043325
Cl       8.395896492   8.470187816   0.092100870
Cl       3.032598334   0.141933564   2.288357244
Cl       3.156220644   0.137792731   9.244150384
Cl       2.617313695   5.728261983   3.602816667
Cl       2.434036501   5.699144580   8.180586180
Cl       8.062437448  -0.001279689   3.429381834
Cl       8.374465476  -0.065918983   8.596405585
Cl       8.216855290   5.573216456   2.899626229
Cl       9.123215422   5.538670156   8.997323031
Cl       5.704902924   3.003554911   2.939074601
Cl       5.925941460   3.364398552   9.147433165
Cl       5.525082307   8.409799860   2.668113424
Cl       5.663532369   7.991405031   9.041999231
Cl       0.100844540   2.582160144   3.261194055
Cl       0.272782140   2.508444429   8.436339309
Cl      -0.117920734   8.873522814   3.467216406
Cl       0.036313621   8.796492416   8.271552495
C        5.773786333   5.235700964   6.215024750
C        5.165603487   5.584332612   0.316781789
C        5.947898938   0.224838389   6.332812838
C        6.201145464   0.318223605   0.127411379
C       -0.387575607   5.822647635   5.782840713
C       -0.222909257   5.820849090   0.827875962
C        0.692661318   0.026642197   5.805552995
C       -0.352100207  -0.470555421   0.134881161
N        0.440855546   5.769880732  -0.503385061
N        0.400607250   4.558549965   5.854878595
N        0.634252440   0.646116014   0.053337920
N       -0.791662452  -0.032361613   5.945036827
N        6.626882284   5.669617926   0.036311420
N        5.593176647   6.006238702   4.949377346
N        5.388434710  -0.928338115   0.037966692
N        5.239388828   0.176160090   5.022716893
H        5.615778214   4.174445686   5.997979495
H        4.624574644   5.933975130  -0.568321928
H        5.200877218   0.260058759   7.135041078
H        6.052116085   0.901383135  -0.788285021
H       -0.109312060   6.355054751   4.866145568
H       -0.829727367   4.917054216   0.947201163
H        1.082976087  -0.991164515   5.893045431
H        0.189154719  -1.417750814   0.039866063
H        7.254626047   0.039692928   0.231298172
H        6.584940085   1.115860096   6.354270227
H        4.938760803   6.223966811   1.175996101
H        5.040720019   5.590272389   6.948405239
H       -1.075392322  -0.359224194  -0.679563427
H        1.086102912   0.664660955   6.602519851
H       -0.860363935   6.711312002   0.863735631
H       -0.146731041   6.434148416   6.659985765
H        4.919817881   4.540172890   0.528509889
H        6.791282404   5.407435224   6.582540069
H        5.864429487   0.890893975   1.000014259
H        6.563179668  -0.675683565   6.424084540
H        0.549571577   5.864723799   1.605226862
H       -1.451940892   5.567369777   5.772829095
H       -0.858095924  -0.412541348   1.104688384
H        0.929748635   0.449171238   4.824163417
H       -1.057785326  -0.418767438   6.864579543
H        1.176043922   0.616197567  -0.826861220
H        1.408769887   4.760183313   5.856023762
H       -0.266286120   5.728225729  -1.262983683
H        4.621888981   1.000454325   4.925818595
H        5.691131854  -1.542842721  -0.742327921
H        4.640704290   5.882360263   4.553982776
H        6.919081448   6.632012574  -0.207513374
H        0.206230898   3.937985983   5.044948077
H        1.054002536   4.934461660  -0.562987779
H       -1.197524939  -0.634260660   5.214262884
H        1.326235520   0.593929835   0.823763875
H        6.283124408   5.714275039   4.234673095
H        6.865891552   5.051595940  -0.755682734
H        4.651952548  -0.679391738   4.981383070
H        4.397727490  -0.703480438  -0.130417996
H        0.151063808   1.555852978   0.102995842
H       -1.234322250   0.903657246   5.864278074
H        1.048727041   6.599334188  -0.630225724
H        0.197631464   4.017371633   6.716426737
H        5.451174155  -1.488813859   0.911723819
H        5.925958189   0.160459872   4.249807874
H        7.183069924   5.400759815   0.868487900
H        5.738347122   7.013012031   5.110289018
