CRYSTAL
PRIMVEC
11.2820 0 0
0 11.1747 0 
0 0 11.3552
PRIMCOORD
96 1
Pb       2.850211425   2.833743505   2.957778907
Pb       2.995852333   2.791502093   8.618257142
Pb       2.874063121   8.423431560   3.082137994
Pb       3.077932499   8.400358679   8.766750558
Pb       8.468322246   2.855741091   2.854045455
Pb       8.586307535   2.846302485   8.524576730
Pb       8.517738766   8.405640106   2.930250343
Pb       8.630899370   8.484224433   8.674502755
Cl       3.197425647   2.982205747   5.790019821
Cl       2.564676636   2.406637158   0.103359487
Cl       2.530776761   8.176433061   5.949661946
Cl       3.381365665   8.860139286   0.277779416
Cl       8.732951309   2.863163810   5.691293481
Cl       8.413863101   2.600972707   0.011012676
Cl       9.264581999   8.243638638   5.849034576
Cl       7.946673190   8.810265910   0.163652656
Cl       3.243393380   0.051729770   3.128847155
Cl       2.947335393  -0.016372985   8.344380403
Cl       3.099235215   5.633291826   3.028464852
Cl       2.784170575   5.594166216   8.721915471
Cl       8.174862032   0.043715622   3.034544882
Cl       8.812931795   0.055348591   8.241659867
Cl       8.777055690   5.640730159   2.184484417
Cl       8.975008184   5.644971954   9.128188751
Cl       5.624450077   2.873073810   2.345213438
Cl       5.796810368   3.513739126   8.571281135
Cl       5.703660661   8.307603254   3.660106014
Cl       5.843032472   8.319648666   7.875787987
Cl      -0.004200264   2.569744277   2.893213151
Cl       0.169193844   3.003130090   8.553596668
Cl       0.059899903   9.058119852   2.672660332
Cl       0.236637227   8.538910694   9.123569226
C        6.206522174   5.207253770   5.463810144
C        5.391857953   6.230081709   0.103622364
C        5.992632202   0.560619736   6.016635534
C        5.655621268   0.250714780  -0.696151656
C        0.136626824   5.254672940   5.586320680
C        0.616016801   5.722842149   0.326183657
C        0.464782199   0.209801824   6.045305608
C       -0.497362049   0.339032150  -0.078494635
N       -0.150135892   4.461070064   0.123697481
N        0.138316335   5.992488900   6.882058726
N        0.781231259  -0.411107167   0.050603683
N       -0.802977421   0.058588351   5.276836963
N        6.298177367   5.051325201   0.020765390
N        4.917962923   5.849356937   5.848121166
N        5.738099556  -0.066354674   0.755403273
N        4.872195293  -0.398731550   5.811919109
H        6.881095814   5.236503414   6.325131890
H        5.714298145   6.973715565  -0.633076675
H        6.644936010   0.530104763   5.137174337
H        6.508654579   0.883405451  -0.960651725
H        1.020228744   5.560909742   5.013829480
H        1.681759703   5.477283546   0.377595636
H        1.084016427  -0.677980018   5.875870755
H       -0.483245353   0.896107209  -1.020435980
H        4.710520560   0.770582698  -0.878608837
H        6.554817091   0.258780457   6.906813512
H        5.451570164   6.655571693   1.111434984
H        6.626619300   5.764624748   4.619132739
H       -0.581157439   1.021413970   0.771644088
H        0.211455010   0.294208555   7.106607685
H        0.279825984   6.182239697   1.262762545
H       -0.780015161   5.509561390   5.042779579
H        4.369447626   5.899949323  -0.108461822
H        6.001627302   4.169033610   5.183030577
H        5.686403211  -0.689942006  -1.257322320
H        5.569494859   1.562777185   6.147569144
H        0.415591668   6.392655496  -0.518057808
H        0.167060582   4.181213301   5.796361726
H       -1.327587116  -0.376344340  -0.071777218
H        0.982955688   1.113957456   5.705460007
H       -1.301296781  -0.808487467   5.561212237
H        1.585103619   0.237160041   0.050460499
H        0.069415506   7.007086904   6.721563176
H        0.011385102   3.792101939   0.897791963
H        5.218465153  -1.363833953   5.723829528
H        5.736141535   0.792417421   1.334434876
H        5.072640003   6.812335852   6.189895426
H        7.275592321   5.316130432   0.208776827
H        1.006543582   5.814361209   7.423657835
H        0.100528829   3.992436405  -0.769236676
H       -0.629020743  -0.014727989   4.266124054
H        0.876119016  -1.088756029  -0.726864014
H        4.453323784   5.320777150   6.600117905
H        6.249535443   4.599194394  -0.914705268
H        4.341516161  -0.179947035   4.944069560
H        6.602172665  -0.600964731   0.949464520
H        0.780808309  -0.958379185   0.932964741
H       -1.434195885   0.866315899   5.433763242
H       -1.161397689   4.649519954   0.092943552
H       -0.657618092   5.724548497   7.489352734
H        4.934574174  -0.654746532   1.030275460
H        4.208959331  -0.363147946   6.610330283
H        6.047497102   4.331716779   0.727507464
H        4.269913658   5.883762146   5.040512576
