CRYSTAL
PRIMVEC
11.2820 0 0
0 11.1747 0 
0 0 11.3552
PRIMCOORD
96 1
Pb       2.884574539   2.844253117   2.948744812
Pb       2.924607789   2.761260265   8.646663403
Pb       2.733759183   8.545594750   3.055755044
Pb       2.863682992   8.418307641   8.655901233
Pb       8.519740104   2.755062775   2.878965037
Pb       8.600583557   2.800545083   8.636576540
Pb       8.462560924   8.482410185   2.973126783
Pb       8.549351511   8.333633699   8.655030456
Cl       2.902733197   2.606910386   5.792988514
Cl       2.989261557   3.244981785   0.127370316
Cl       2.394412591   8.283310547   5.855987425
Cl       3.140999717   8.279072074   0.198038850
Cl       8.418345155   2.839849979   5.759282504
Cl       8.879747256   2.141306214   0.099146543
Cl       8.401087007   8.331288913   5.805573799
Cl       8.332641075   8.681572033   0.134486346
Cl       3.347667431   0.109111810   2.677950943
Cl       2.079597682  -0.009192790   8.562764838
Cl       2.311364993   5.722697550   2.909126637
Cl       2.990436576   5.587969842   8.474452336
Cl       7.634173080   0.044226987   3.253121370
Cl       9.074207715  -0.008433997   8.216566423
Cl       8.750366852   5.646434890   2.562965203
Cl       8.143244033   5.583234354   8.499306653
Cl       5.700426606   3.477577109   3.022193887
Cl       5.759997318   2.422044670   8.418596020
Cl       5.612626048   7.914803612   3.091838009
Cl       5.758647056   8.920185254   8.625521120
Cl       0.034461995   2.699202247   3.400455885
Cl       0.097409890   3.146978400   8.203729148
Cl      -0.030170279   8.864859438   2.360632203
Cl       0.091580916   8.029917895   9.284468145
C        5.402707187   5.603470313   6.114592914
C        5.973208290   5.687139381  -0.360306610
C        5.004623205  -0.367970303   5.788829509
C        5.500387528   0.378631809  -0.205906612
C       -0.343597868   5.939257619   5.884486739
C       -0.090841877   5.015704610  -0.365196806
C       -0.009000253  -0.322788551   5.024338311
C        0.769782997   0.366648568   0.369803825
N        0.024555237   6.137954118   0.607955791
N        0.992614467   5.282612093   5.862646302
N       -0.343901975  -0.285033080  -0.371023060
N        0.049889741   0.734646244   6.067710562
N        5.070587554   5.672729545   0.823813265
N        6.706633189   5.587088855   5.390460475
N        5.627748214  -0.863296027   0.607305979
N        6.336746051   0.074447553   6.282900533
H        4.834519351   6.485347086   5.795466013
H        7.007298564   5.755366656  -0.005322761
H        5.121488405  -1.342232394   5.301105991
H        5.405712744   0.091302148  -1.257495323
H       -0.896685960   5.630918296   4.988743981
H        0.810355318   4.996432430  -0.985187595
H        0.823248669  -0.172138224   4.328418786
H        1.620797670  -0.320442031   0.399659201
H        6.402828113   0.984363385  -0.064319299
H        4.630129665   0.373147925   5.077530551
H        5.730911655   6.555426255  -0.984337645
H        5.607344989   5.647525754   7.188120986
H        0.428641447   0.591814010   1.385983164
H       -0.959506669  -0.226466750   4.487590257
H       -0.967228542   5.199019174  -0.997458295
H       -0.191328769   7.023085806   5.886589080
H        5.820737566   4.763419233  -0.930672767
H        4.856661532   4.684221174   5.872181048
H        4.615238188   0.931347501   0.129398275
H        4.323847519  -0.447184502   6.642944603
H       -0.201820229   4.075833879   0.185788055
H       -0.874400693   5.624453673   6.790029319
H        1.043852572   1.289179097  -0.151469207
H        0.068014280  -1.302703747   5.505987691
H        0.015527089   1.665575434   5.628071801
H       -0.634201866  -1.158474176   0.092352127
H        1.505160691   5.520015807   4.993490085
H        0.115937375   7.031977778   0.098636472
H        6.987240858   0.214084422   5.491403494
H        6.480443931  -1.396695401   0.344357017
H        7.266052084   6.435418475   5.606475580
H        5.168079181   6.533080622   1.395190753
H        0.913355511   4.258057684   5.908201260
H        0.843327438   6.027154039   1.234616098
H        0.912030815   0.672039042   6.635238333
H       -0.060430374  -0.518461027  -1.333749713
H        6.559105231   5.553074107   4.373140986
H        5.288157210   4.873186040   1.456350999
H        6.735892407  -0.630086543   6.918148709
H        4.807943124  -1.488895971   0.474479940
H       -1.164607676   0.350144593  -0.408280705
H       -0.743141115   0.643717101   6.733142069
H       -0.811551478   6.181534411   1.220133280
H        1.577537067   5.564764751   6.672701088
H        5.694353517  -0.642403530   1.609705067
H        6.255100467   0.959045805   6.823240622
H        4.087346247   5.579772556   0.543160561
H        7.266219319   4.749388104   5.646532525
