CRYSTAL
PRIMVEC
11.2820 0 0
0 11.1747 0 
0 0 11.3552
PRIMCOORD
96 1
Pb       2.904987056   2.811109129   2.985606488
Pb       2.775634134   2.747746622   8.607617579
Pb       2.965435820   8.406090375   2.882095933
Pb       2.754115764   8.316634333   8.504741861
Pb       8.699094380   2.813704749   3.117687188
Pb       8.399820191   2.782213904   8.761090648
Pb       8.635974299   8.407070704   2.991802416
Pb       8.369092998   8.321432927   8.700191032
Cl       2.828834744   2.734745967   5.814539465
Cl       3.104272772   2.553778181   0.119119809
Cl       2.645735136   8.619929199   5.715930346
Cl       2.875669256   8.307074992   0.008209978
Cl       9.102509758   2.506735166   5.994198669
Cl       8.044345226   3.106261433   0.292997841
Cl       8.924132767   8.611396893   5.899326335
Cl       8.242002477   7.858662023   0.182111679
Cl       3.419978117   0.046730833   3.008076135
Cl       2.011353807  -0.037001237   8.550943925
Cl       3.098117067   5.583313485   2.531006735
Cl       3.253171357   5.508564464   8.381141113
Cl       8.409661599   0.061928182   2.561425783
Cl       9.011607804  -0.019437967   9.028903086
Cl       8.499794709   5.608895276   3.670446301
Cl       7.927693598   5.525149973   8.081992080
Cl       5.788818440   3.012597177   3.243428186
Cl       5.598158107   2.216213691   8.254492959
Cl       5.792565423   8.422964682   2.895003761
Cl       5.557691670   8.899892913   8.245200300
Cl       0.129670875   2.759650306   2.286495091
Cl      -0.046381252   3.376192593   8.971605262
Cl       0.148766663   8.301473489   2.837786560
Cl      -0.079949934   7.600274097   8.733325184
C        5.285516559   6.142625993   5.554435554
C        5.421758011   5.568359356  -0.339105154
C        6.306691199  -0.014850882   5.464491044
C        5.860846061  -0.384663836  -0.221028247
C        0.538264229   5.561630946   5.350918226
C       -0.194275310   5.685891742   0.451559357
C        0.236643053   0.125340804   4.927003560
C        0.255220398  -0.458997412   0.596808065
N        1.148926233   5.556454567  -0.185036307
N       -0.656395747   5.602895410   6.241834969
N        0.078358293   0.729721429  -0.284511046
N       -0.327392202  -0.153469229   6.277032169
N        6.058555551   5.646586578   1.005844522
N        5.659364708   4.763795067   5.978447063
N        5.769644291   0.752464130   0.740965067
N        4.906063853  -0.070025356   5.970297653
H        6.058084015   6.514394468   4.874288789
H        6.210473397   5.515514463  -1.097899299
H        6.981866454   0.055502573   6.323787119
H        5.904142925   0.021586686  -1.237248901
H        1.412739556   5.283542434   5.949901221
H       -0.777435955   4.789418066   0.215828545
H        0.749950513   1.091957433   4.960658384
H        0.282081536  -1.359885257  -0.025089408
H        4.973864895  -1.017379944  -0.100181876
H        6.408000176   0.862756578   4.818485346
H        4.811056873   6.465597920  -0.483326592
H        5.219384368   6.776582730   6.444811527
H       -0.584004904  -0.495775852   1.297130212
H       -0.587542562   0.153004995   4.204686732
H       -0.678606841   6.576718855   0.041488073
H        0.671366969   6.553805391   4.906492677
H        4.792974338   4.672528105  -0.376417239
H        4.318801271   6.101227958   5.042489447
H        6.764462866  -0.960995951   0.006382048
H        6.501500905  -0.928718323   4.894880793
H       -0.058108260   5.789762465   1.531983171
H        0.359210397   4.818752538   4.564154350
H        1.199844833  -0.351273743   1.141341436
H        0.936941264  -0.674402219   4.669909079
H       -0.978017125   0.604634389   6.543861530
H       -0.799693284   0.645408579  -0.832928024
H       -0.528190533   6.289324587   7.014592032
H        1.047944958   5.428202774  -1.201898719
H        4.693893505   0.777037827   6.518559907
H        4.912803524   1.311662266   0.571485043
H        6.522629574   4.802357498   6.553278050
H        6.677696201   6.477007917   1.048857494
H       -0.840052534   4.684603025   6.668954042
H        1.669801473   4.751433776   0.189227630
H        0.414709420  -0.212459233   6.999652352
H        0.842073299   0.778861137  -0.977797937
H        5.804859001   4.149127849   5.154307996
H        6.636059937   4.809067885   1.176685536
H        4.797242103  -0.888827048   6.595877628
H        6.582647839   1.390656502   0.658412087
H        0.065836265   1.595054409   0.280828794
H       -0.877813103  -1.038486166   6.268936011
H        1.723700004   6.410856446  -0.026184382
H       -1.498586534   5.865735765   5.703687767
H        5.734957648   0.414801712   1.710690530
H        4.233991624  -0.142743041   5.186997950
H        5.340936439   5.716614719   1.745163605
H        4.922996473   4.343209683   6.560031878
