CRYSTAL
PRIMVEC
11.2820 0 0
0 11.1747 0 
0 0 11.3552
PRIMCOORD
96 1
Pb       3.230375158   2.831100573   2.938829429
Pb       2.920533301   2.877901267   8.682741845
Pb       2.947812145   8.320887370   2.999937010
Pb       2.666935783   8.328235834   8.659241412
Pb       8.941831164   2.780559721   2.891873132
Pb       8.598682105   2.778761930   8.613333234
Pb       8.637762662   8.439165017   2.963466714
Pb       8.287302741   8.339841916   8.662236999
Cl       3.353510236   2.535387217   5.865358850
Cl       3.108311019   2.572017383   0.157601654
Cl       3.024377328   8.921397830   5.895108441
Cl       2.533363743   8.288397998   0.186989893
Cl       8.708581799   3.232876645   5.743398755
Cl       8.880086833   2.309157621   0.036177759
Cl       8.267560891   7.529686849   5.866496828
Cl       8.886749847   8.755175641   0.129074438
Cl       3.360487694  -0.033002007   2.943648510
Cl       2.721979473   0.007468882   8.887153074
Cl       2.622714159   5.550466346   2.751975227
Cl       2.404214282   5.581818491   8.128440927
Cl       8.439131042   0.055763863   3.127212888
Cl       8.174872217  -0.005820040   8.303643653
Cl       9.117707178   5.655805604   2.427510178
Cl       8.656106756   5.582468628   9.380596629
Cl       6.096702952   3.469576483   2.887001852
Cl       5.794486526   3.073123357   8.381280085
Cl       5.814745416   8.211757222   2.302258721
Cl       5.482368423   8.559574813   8.968604567
Cl       0.445105828   2.437725143   3.335321674
Cl       0.150935406   2.478736993   8.243595763
Cl       0.174142608   8.689184934   3.222290060
Cl      -0.158450446   8.355226320   8.552607150
C        5.006228059   6.073606056   5.659878255
C        5.156659211   5.491636312  -0.220039680
C        6.198592876  -0.096531246   5.474015924
C        6.045164935   0.355157851   0.113487198
C        0.477628248   5.682261598   5.280989660
C        0.376095591   4.960952074  -0.117693409
C       -0.508326355  -0.127601553   5.932634603
C        0.346066355   0.097187204   0.674795977
N       -0.064371231   6.353512884   0.173297259
N       -0.451298173   5.553954733   6.441888355
N       -0.301715148  -0.031983172  -0.664198766
N        0.895321818   0.290477777   5.658763960
N        6.446122994   5.654792998   0.508955564
N        6.088038864   5.052205188   5.731774270
N        4.788429297  -0.448622932   0.135433706
N        5.269838880   0.035325064   6.634417972
H        5.194922659   6.705499750   4.783520107
H        5.153242963   4.511584009  -0.706896667
H        6.885545639   0.755709675   5.478419447
H        6.586451644   0.145575930  -0.815844083
H        1.145576644   4.815345691   5.275024677
H       -0.513084210   4.326777266  -0.205232970
H       -0.849065734  -0.743438606   5.095229658
H        1.081527941  -0.704723849   0.787602744
H        6.658439082   0.071803407   0.976630549
H        5.605286972  -0.110765433   4.553089325
H        5.076909522   6.290909009  -0.965288130
H        5.035318360   6.682273162   6.570312598
H       -0.432708871   0.005595127   1.439787765
H       -1.123570707   0.773949728   6.019586915
H        1.015447457   4.622304497   0.703913580
H        1.050634312   6.608561661   5.395521775
H        4.338073536   5.561746628   0.505887652
H        4.041033612   5.563844595   5.573927921
H        5.773226987   1.414563311   0.169642307
H        6.765992085  -1.027756353   5.583599179
H        0.936390564   4.964514749  -1.058660835
H       -0.114240644   5.713819506   4.360163325
H        0.832055095   1.075841892   0.733765218
H       -0.530721046  -0.696962865   6.867156845
H        0.935106162   0.857833720   4.788208297
H       -0.784305812  -0.943090362  -0.743910564
H        0.084657954   5.540430230   7.321586071
H       -0.664254067   6.355419098   1.022489779
H        4.719596645   0.913422133   6.554029827
H        4.990504236  -1.454128683   0.073121333
H        7.003562998   5.523593533   5.827336222
H        7.255254833   5.618334663  -0.136012962
H       -1.009549719   4.681606470   6.357973355
H       -0.633199114   6.734788972  -0.595031518
H        1.532587996  -0.521352337   5.571443171
H        0.383654041   0.064479771  -1.427111357
H        6.123773425   4.476677489   4.865421688
H        6.551314982   4.917031851   1.230678131
H        5.805335841   0.045794909   7.514203085
H        4.159897447  -0.207097070  -0.650444741
H       -1.021515616   0.708722152  -0.755733533
H        1.246741423   0.890301531   6.417329902
H        0.744537914   6.988209175   0.315992240
H       -1.128054484   6.338228578   6.461022755
H        4.265978709  -0.287327948   1.023670195
H        4.595515006  -0.749866543   6.654220978
H        6.449924673   6.561892399   1.018553127
H        5.963893970   4.408566288   6.537448053
