CRYSTAL
PRIMVEC
11.2820 0 0
0 11.1747 0 
0 0 11.3552
PRIMCOORD
96 1
Pb       2.916365754   2.661328353   2.926006885
Pb       3.024321437   2.832673933   8.524354475
Pb       2.761134599   8.237835438   3.121833473
Pb       2.885569558   8.378596708   8.895726817
Pb       8.617407072   2.963252175   2.749093977
Pb       8.638508110   2.889506530   8.348094528
Pb       8.382918176   8.461384239   2.901756398
Pb       8.500077073   8.452624410   8.635180364
Cl       2.966771391   2.069884079   5.720247405
Cl       2.898047254   3.120080183   0.030956130
Cl       2.397599996   8.672128308   6.025508938
Cl       3.242626272   7.847893335   0.356206175
Cl       8.270883703   3.360091417   5.552774293
Cl       8.736324772   2.871866318  -0.123323540
Cl       8.661466620   8.207853717   5.748825951
Cl       8.237074228   8.866743631   0.062123747
Cl       2.440972260  -0.162362486   2.542365959
Cl       3.035270860   0.054633103   8.759252386
Cl       3.550598631   5.454585777   3.476429263
Cl       2.333047759   5.666743412   8.467617689
Cl       8.798412141   0.119661194   2.668233505
Cl       8.747024549   0.060211038   8.278271571
Cl       7.770357846   5.707201597   2.546332778
Cl       9.109176806   5.677344196   8.682497830
Cl       5.786206441   2.460414503   2.456470828
Cl       5.850670032   2.605336978   8.947376529
Cl       5.537854287   8.762098831   3.555369694
Cl       5.669963470   8.308997988   8.054116939
Cl       0.176131054   3.230828869   2.660273903
Cl       0.199073754   2.711784183   8.290275752
Cl      -0.098192308   8.099012266   2.935987772
Cl       0.066919506   8.719885336   9.122951187
C        5.531078668   5.153531955   6.576407835
C        6.106350685   5.695288386  -0.597384519
C        6.253681769   0.482560690   5.762791186
C        5.288981162  -0.492583528   0.112581837
C        0.271682100   5.274420478   5.421453843
C       -0.121086107   5.966395613   0.335823597
C       -0.348139475   0.215520701   5.341094188
C        0.127048303   0.563198587  -0.247187605
N        0.087933245   4.714791044  -0.442530905
N        0.026305893   6.467334582   6.281338925
N       -0.077044460  -0.635892725   0.614485229
N        0.348025634  -0.066228862   6.628374902
N        5.236724804   5.336154930   0.557288434
N        6.070538173   5.913928942   5.416204064
N        6.407840927   0.489211293   0.032950187
N        5.070130826  -0.401475279   5.959953750
H        5.340654084   4.124666037   6.251382104
H        6.611193289   6.640325832  -0.364693120
H        7.156138215  -0.138303278   5.743768682
H        5.369657541  -1.184520523  -0.732735837
H        1.168415854   4.760048509   5.783841013
H       -1.012379695   6.472706106  -0.051046321
H        0.404768226   0.392873549   4.564548612
H        1.057335959   0.435483764  -0.810833370
H        4.340921502   0.053466250   0.070207255
H        6.300930445   1.190959771   6.596017842
H        5.478862987   5.809241910  -1.488681728
H        4.605454738   5.633789874   6.912721950
H        0.187297522   1.442377295   0.404105870
H       -0.981606516   1.100667226   5.472842113
H        0.761595727   6.604608462   0.218560881
H        0.413799754   5.614108600   4.390602953
H        6.844088604   4.899779107  -0.743296332
H        6.277335889   5.162443679   7.377590360
H        5.370615089  -1.040287106   1.057844135
H        6.134922715   1.017208953   4.813324251
H       -0.256498935   5.697968717   1.387334342
H       -0.598827716   4.612353116   5.485319692
H       -0.720984063   0.650931542  -0.933553004
H       -0.963635415  -0.652180537   5.082536037
H        0.909940001   0.742370928   6.928694964
H        0.723175189  -0.741300447   1.267949451
H        0.832742765   7.120177293   6.258303000
H        0.211390238   4.910703534  -1.444142301
H        5.150590373  -0.966918542   6.822209013
H        6.351109672   1.065397306  -0.828144196
H        5.371352506   5.932269648   4.645131740
H        4.535935296   6.084737336   0.719303351
H       -0.133700986   6.192386797   7.259845824
H       -0.730257418   4.079648730  -0.344635715
H        0.984931181  -0.880821773   6.538624932
H       -0.172850662  -1.482616450   0.035274992
H        6.925965122   5.463846041   5.053875514
H        5.808365192   5.229704711   1.412835283
H        5.004494790  -1.073723564   5.169400696
H        7.313751761  -0.000195564   0.059313661
H       -0.930204299  -0.528720102   1.196883430
H       -0.338559076  -0.252358857   7.378579224
H        0.934137947   4.205516468  -0.124924922
H       -0.816309952   6.993002389   5.971199601
H        6.360802786   1.145734674   0.840527126
H        4.205330844   0.165587861   6.005810768
H        4.708990439   4.459971397   0.394312280
H        6.305170890   6.883595507   5.672384403
