CRYSTAL
PRIMVEC
11.2820 0 0
0 11.1747 0 
0 0 11.3552
PRIMCOORD
96 1
Pb       2.814642553   2.815728213   2.866135883
Pb       2.878307565   2.849661829   8.523650079
Pb       2.870419004   8.421995356   2.847111342
Pb       2.838046280   8.319423498   8.514394178
Pb       8.572145261   2.846176623   3.079754548
Pb       8.567912499   2.858362434   8.716881863
Pb       8.492784961   8.450270707   3.059083274
Pb       8.495870308   8.425413440   8.717440649
Cl       3.240292531   2.364273921   5.670072603
Cl       3.034242426   2.823593984   0.010797043
Cl       2.635917376   8.881042763   5.644649466
Cl       3.122892166   8.355667721  -0.023189791
Cl       8.199111812   3.405860809   5.875492085
Cl       9.089668213   2.791389666   0.220669180
Cl       8.954466919   8.220738794   5.876612716
Cl       8.666494792   8.635475567   0.207501394
Cl       2.190983172   0.021953473   2.463902269
Cl       2.681102758   0.008254951   8.423997680
Cl       3.445965606   5.587409631   3.147410305
Cl       3.622918324   5.575642449   8.207051605
Cl       9.255354898   0.024924503   3.337074772
Cl       8.790959160   0.042343264   8.871862252
Cl       8.155117872   5.604337752   2.505131138
Cl       8.079106419   5.609681846   9.235894444
Cl       5.648392484   2.520696954   2.784264447
Cl       5.712997583   2.438945202   8.925671339
Cl       5.626238169   9.115726068   3.250358897
Cl       5.636513170   8.985376378   8.491425732
Cl       0.016876657   3.200518989   3.682078124
Cl       0.074965653   3.418186208   8.405773187
Cl       0.005341824   7.947997497   2.676614347
Cl       0.011555058   7.657133564   8.803548226
C        6.125813453   6.264925700   5.712963532
C        5.295599273   5.774139988   0.119142692
C        6.549283809   0.344014892   5.863458082
C        6.081681189   0.001013305   0.254093193
C        0.864355022   5.795790772   5.662283239
C        0.577465339   5.135359467   0.364460276
C       -0.374964826   0.333887854   6.385694828
C        0.492277908  -0.103081206  -0.553336003
N       -0.603213492   6.018928792   0.165910817
N       -0.535998133   5.542214827   6.095173761
N       -0.569921370  -0.062804118   0.488401585
N        0.650658155   0.251318328   5.309289777
N        6.014863271   4.468766750   0.172382576
N        5.378164614   4.980056822   5.626341046
N        4.732279084  -0.001183892  -0.376543084
N        5.219360011  -0.319940151   5.922080251
H        6.851729142   6.293385355   4.894507223
H        5.575143992   6.283203112  -0.808841033
H        7.324846700  -0.427877877   5.798500535
H        6.611978905  -0.901263046  -0.065391902
H        0.853740168   6.135812387   4.622373999
H        0.476046642   4.638411580   1.336579549
H       -1.015255791  -0.551545291   6.320875119
H        1.065134741  -1.028466456  -0.431289276
H        5.960899798   0.009807735   1.341982163
H        6.679757729   0.939944387   6.771524392
H        5.588690254   6.363501434   0.994232901
H        6.639605090   6.300485951   6.679653336
H        1.150801612   0.760635779  -0.413532072
H       -0.968515722   1.241417004   6.227608240
H        1.479423753   5.758878353   0.346052696
H        1.428941402   4.861611977   5.749800983
H        4.221022541   5.575047868   0.138111371
H        5.413807076   7.093043902   5.623780545
H        6.621599349   0.891403478  -0.086119465
H        6.575018285   0.983694884   4.975600742
H        0.601901775   4.396721149  -0.442132643
H        1.287721534   6.566137878   6.310765437
H        0.012550386  -0.071184930  -1.535239299
H        0.136763198   0.372589787   7.351739304
H        0.194615048   0.240582352   4.384534512
H       -0.157204090  -0.110567533   1.430499386
H       -0.979413688   4.826516598   5.501615885
H       -0.649799632   6.723371024   0.927320808
H        5.154893359  -0.919910688   6.768317152
H        4.191647282  -0.850840206  -0.120271060
H        6.041746325   4.187895329   5.649792928
H        7.032101746   4.619123955   0.170142911
H       -1.109589414   6.409881481   6.058755446
H       -1.480082651   5.482772915   0.167510775
H        1.232639102  -0.606314958   5.401323378
H       -1.231926896  -0.860665382   0.389047396
H        4.816505897   4.947015822   4.753578310
H        5.785148310   3.877394582  -0.648734291
H        5.091809960  -0.925970636   5.088103252
H        4.807546611  -0.002191821  -1.402999355
H       -1.125074331   0.810997040   0.423346670
H        1.298150208   1.055522428   5.339775801
H       -0.531717717   6.529177197  -0.737794374
H       -0.540535606   5.169151087   7.060007365
H        4.181082841   0.837063995  -0.116281785
H        4.456160362   0.375930282   5.950592771
H        5.781267232   3.931466669   1.030522036
H        4.727178671   4.911020032   6.431944224
