CRYSTAL
PRIMVEC
11.2820 0 0
0 11.1747 0 
0 0 11.3552
PRIMCOORD
96 1
Pb       2.890099898   2.908061620   3.031358737
Pb       3.101120205   2.955021807   8.784197633
Pb       2.864585273   8.465297389   2.998984731
Pb       2.907486046   8.533652054   8.687162905
Pb       8.532956738   2.694669242   2.883638107
Pb       8.742210234   2.640242129   8.484553534
Pb       8.505716740   8.311371040   2.915935233
Pb       8.546954508   8.237039967   8.583174963
Cl       2.717055142   3.061012125   5.910930951
Cl       3.106218066   3.539504220   0.248522436
Cl       2.158937673   8.524019095   5.805209908
Cl       3.191349265   7.998855760   0.134360370
Cl       8.748803572   2.057132779   5.665784067
Cl       8.361555530   2.535351527   0.004515555
Cl       8.830612266   8.775266763   5.781955695
Cl       7.798777116   8.247684111   0.110462565
Cl       2.204216512   0.105975826   2.791862672
Cl       2.544217705   0.212844613   9.195702998
Cl       3.354459682   5.689878456   3.361449936
Cl       3.437192978   5.785752527   8.247509141
Cl       8.996794079  -0.087475017   2.552764209
Cl       9.075456101  -0.189403187   9.020637196
Cl       7.847500187   5.497129561   3.119968279
Cl       8.184132728   5.383368188   8.072228576
Cl       5.732139121   2.455149814   3.374825030
Cl       5.941929559   2.252520018   8.318277043
Cl       5.768117415   8.987426361   3.243611458
Cl       5.796057319   9.106928200   8.330363788
Cl       0.091211242   3.154652589   2.539163155
Cl       0.300692355   3.343722883   8.952967184
Cl       0.127132538   7.791839005   2.667342010
Cl       0.155425974   7.665667315   8.939159757
C        5.887890499   6.349780525   5.791720593
C        6.020208357   5.244056249  -0.427755034
C        4.711827498   0.023214958   5.774149272
C        5.193780622   0.159214800   0.438994624
C       -0.447618143   5.445683958   5.476906466
C       -0.930597124   5.575848579   0.139805733
C        0.379422332   0.348271039   6.342839749
C        0.246751872  -0.745739513   0.119089997
N        0.544716876   5.774826747   0.170613918
N        0.766497106   5.634411379   6.321837422
N        0.042882262   0.732206308   0.061115135
N       -0.067602157  -0.256190959   5.055668600
N        5.572157508   5.851627776   0.857567199
N        5.683663098   4.871973122   5.851591327
N        6.407255028  -0.036561502  -0.405302677
N        6.186785613  -0.178255218   5.743253448
H        5.340481198   6.737949892   4.928703632
H        7.009239096   5.641386237  -0.672489410
H        4.411029368   0.532549217   4.854453577
H        4.718813063   1.107199921   0.160296787
H       -0.140387649   5.424816854   4.425685321
H       -1.182301356   4.969622361  -0.735143320
H       -0.340078259   0.076269273   7.123142443
H        1.317121266  -0.941529708   0.225800391
H        5.500825600   0.180285214   1.490260956
H        4.460766923   0.625839988   6.651788583
H        5.299799993   5.511730958  -1.208695020
H        6.958327736   6.545153967   5.684845451
H       -0.130169230  -1.178325492  -0.812322810
H        0.423711140   1.434939371   6.224106925
H       -1.402403860   6.561631126   0.072524794
H       -1.132719355   6.282037271   5.656552985
H        6.067368894   4.157921287  -0.305444436
H        5.511196311   6.783440853   6.722765582
H        4.504760417  -0.674173692   0.260544676
H        4.238085092  -0.961954345   5.836798870
H       -1.232889107   5.071563828   1.061747814
H       -0.927192628   4.499571406   5.754079053
H       -0.300668987  -1.134622996   0.981808108
H        1.369532998  -0.047234191   6.585990807
H       -0.983466850   0.116828417   4.764146663
H        0.569720710   1.135491057  -0.729432674
H        1.252993785   6.525084560   6.093534937
H        0.833331934   6.294049855  -0.676871406
H        6.714598178   0.708332578   5.700974333
H        7.085715998   0.740092977  -0.278705761
H        5.990413810   4.408549215   4.980733900
H        5.465589492   6.869795127   0.755718980
H        1.441730538   4.855017300   6.194557911
H        1.070974358   4.887449012   0.215243883
H       -0.171157338  -1.274934820   5.154387593
H        0.353071557   1.194064761   0.931469193
H        4.687801044   4.633897355   5.986846815
H        6.258309614   5.678593074   1.621567870
H        6.432049026  -0.756336776   4.919782784
H        6.169489207  -0.079474752  -1.406076333
H       -0.953411942   0.971322572  -0.069986705
H        0.617732400  -0.079005785   4.291853572
H        0.790843530   6.354342910   0.992764767
H        0.528518319   5.677469590   7.322563710
H        6.890020491  -0.928979964  -0.175791624
H        6.474423013  -0.699775677   6.589695337
H        4.657388118   5.477184717   1.150659218
H        6.213195844   4.469881141   6.641009019
