CRYSTAL
PRIMVEC
11.2820 0 0
0 11.1747 0 
0 0 11.3552
PRIMCOORD
96 1
Pb       2.987176310   2.948359380   2.955777133
Pb       2.719164404   2.685168066   8.569079926
Pb       3.021815091   8.467220572   3.030092918
Pb       2.761418963   8.216958071   8.689780389
Pb       8.711659573   2.966337051   2.769580616
Pb       8.466794829   2.629738409   8.472618683
Pb       8.627186799   8.540389912   2.971592976
Pb       8.443942840   8.315386793   8.704478252
Cl       3.125792147   2.588963900   5.790212233
Cl       3.009323106   2.621381319   0.089340367
Cl       2.855920043   8.461923301   5.850222238
Cl       2.667929075   8.512945016   0.156843463
Cl       8.467075350   2.954952732   5.607823387
Cl       8.413393585   2.905360453  -0.087450045
Cl       8.705808465   8.261317717   5.841771266
Cl       8.617166916   8.198528184   0.158745222
Cl       3.548968100   0.120019717   2.896596015
Cl       2.255470477  -0.154672703   8.588299787
Cl       2.517483859   5.725713527   2.668710689
Cl       3.551214348   5.445403591   8.550363451
Cl       8.221458631   0.169941096   2.646558533
Cl       9.000672413  -0.129976986   8.364352418
Cl       9.305256273   5.768119136   3.041566679
Cl       7.839754661   5.495567343   8.452952205
Cl       5.819929661   3.307552911   2.443838334
Cl       5.591494320   2.104432125   8.823905967
Cl       5.830675766   8.076482656   3.300462369
Cl       5.593279688   8.686404432   8.332921901
Cl       0.210914863   2.411033869   2.754843381
Cl      -0.052635308   3.241370154   8.412894044
Cl       0.192431363   9.031114577   2.976063571
Cl      -0.041890461   7.670839254   8.568209058
C        5.649387051   5.203488043   5.121614534
C        5.487594419   6.239400419   0.124293092
C        6.200458253   0.095613278   5.438971304
C        5.768397547  -0.574540973  -0.250905126
C        0.480818571   5.376908551   5.572178325
C        0.215684014   5.227442075  -0.103582167
C       -0.022169872   0.334728962   5.554839998
C       -0.273666942   0.135492294  -0.113878768
N        0.065855135   6.515104483   0.631882475
N       -0.873302204   5.466995909   6.185521198
N        1.020204071   0.096052187   0.623209960
N        0.063163338  -0.988674725   6.238593821
N        5.719326216   4.853518039  -0.368771706
N        5.685031911   6.264962483   6.166868878
N        5.801016932   0.633560761   0.614582667
N        5.063657398   0.040529395   6.404051787
H        6.586443974   5.238211297   4.558005405
H        6.293140023   6.507013561   0.815769664
H        7.128094659  -0.109272750   5.986529925
H        6.611233379  -0.525469752  -0.948387483
H        0.956028211   4.451074631   5.915311702
H        0.429750702   5.448284555  -1.153693739
H       -0.159080680   0.164136921   4.483169725
H       -0.062230649   0.123632016  -1.187470096
H        4.827539928  -0.583752127  -0.810593267
H        6.237251937   1.096401501   4.996330547
H        4.522810167   6.263019023   0.643389272
H        4.809157481   5.405519412   4.448455184
H       -0.806402470   1.052516496   0.161032295
H        0.909160595   0.884104724   5.735166249
H       -0.723219192   4.666555997  -0.027281343
H        1.068936533   6.246537992   5.888060786
H        5.479436344   6.918607213  -0.736277713
H        5.529975621   4.231848795   5.611451810
H        5.848683554  -1.463501766   0.385330933
H        6.037659191  -0.655734157   4.659000548
H        1.035162197   4.659254369   0.349734936
H        0.369634645   5.370483267   4.483990060
H       -0.867161889  -0.741609879   0.169564558
H       -0.873938555   0.886466555   5.967033331
H        0.870827309  -1.540882232   5.900161987
H        1.616130075   0.916335277   0.396794350
H       -0.805065176   5.466576780   7.211338284
H       -0.726902643   7.073597685   0.263670919
H        5.193039295   0.738917582   7.166316603
H        5.750866914   1.487044165   0.045357871
H        5.770002277   7.193234946   5.731179632
H        5.742275581   4.191182426   0.434825933
H       -1.469853402   4.657813158   5.913968528
H        0.923457052   7.090586438   0.573124724
H       -0.794876889  -1.552530425   6.093225066
H        1.556554402  -0.763149124   0.400615193
H        6.480788972   6.122525868   6.820335692
H        6.614185818   4.782600039  -0.875868950
H        5.004012534  -0.888218332   6.859098918
H        6.670533169   0.657661886   1.185583939
H        0.860862498   0.108838607   1.638875657
H        0.187646424  -0.864103473   7.252182820
H       -0.143921918   6.342949823   1.627672827
H       -1.367059551   6.332317254   5.903375277
H        5.007807077   0.634569616   1.284719008
H        4.173454943   0.258624262   5.939041558
H        4.975486428   4.577641781  -1.026812436
H        4.835535842   6.244462791   6.755260939
