CRYSTAL
PRIMVEC
11.2820 0 0
0 11.1747 0 
0 0 11.3552
PRIMCOORD
96 1
Pb       2.774777394   2.613963791   2.997448545
Pb       2.888014713   2.669065317   8.591830471
Pb       2.849106549   8.218807805   2.900598448
Pb       2.771731232   8.107783991   8.626205968
Pb       8.383730571   3.077102239   3.062397614
Pb       8.521327029   2.950056989   8.630175813
Pb       8.529210064   8.520301220   2.980971688
Pb       8.491682317   8.557663152   8.695394284
Cl       2.621138335   3.164832180   5.786410595
Cl       2.753025224   2.153443358   0.117681515
Cl       2.841647589   7.667912920   5.751604276
Cl       2.603443146   8.677913589   0.071294534
Cl       8.163200323   2.469679826   5.843478804
Cl       8.455995286   3.462477599   0.172404294
Cl       8.486869371   9.119357215   5.840714405
Cl       8.225197796   8.081724842   0.164638744
Cl       2.759628810  -0.186134109   3.612124658
Cl       2.610043722  -0.194567691   8.290162519
Cl       2.630709911   5.415013073   2.514904046
Cl       2.907187842   5.382956019   9.408555950
Cl       8.359597194   0.210222183   2.693554936
Cl       8.691890611   0.164822731   9.334620090
Cl       8.507664111   5.813467415   3.806851470
Cl       8.283496170   5.748745342   8.236398919
Cl       5.575399792   2.598498630   2.858894665
Cl       5.716694377   2.781052306   9.076665802
Cl       5.686554035   8.494642296   3.296633169
Cl       5.605140149   8.280957240   8.657924615
Cl      -0.082156334   2.953152540   2.965236607
Cl       0.077040103   2.732714652   8.928531020
Cl       0.057545299   8.339384936   3.303335424
Cl      -0.026168993   8.470382958   8.570041461
C        5.495089573   5.233683746   5.901092287
C        5.413992104   5.801855759   0.578668354
C        5.293361036   0.216031796   6.234033490
C        5.319844698  -0.386140197   0.130621417
C       -0.221265271   5.366868828   6.258805852
C       -0.198152481   5.952568097   0.125782120
C       -0.338156588   0.484635719   5.819562378
C       -0.354486311  -0.101397814   0.648418336
N        0.461224204   4.617448009   0.169843172
N        0.453782642   5.527343538   4.942399549
N        0.552674384  -0.090141166  -0.530232456
N        0.517409101  -0.735111673   5.883664910
N        6.107852463   5.656719435  -0.729818359
N        6.127919891   6.582650753   5.908328258
N        6.395830535   0.645510854   0.181753579
N        6.054878042   0.104668300   4.960064072
H        5.720229257   4.744587931   4.946404723
H        4.352274293   5.981601830   0.387187580
H        4.230628841   0.317182875   5.995032117
H        4.776399097  -0.287560635  -0.815493414
H       -1.283801058   5.176623045   6.082107292
H        0.096974316   6.461011072  -0.798924903
H       -0.933437058   0.451648188   4.900842235
H       -0.888596204   0.853026314   0.692671085
H        4.633641747  -0.222064507   0.968458318
H        5.655757140   1.095930821   6.778365389
H        5.861619560   6.645442919   1.116134550
H        4.413917652   5.355366440   6.016922435
H        0.248209349  -0.244854742   1.552912741
H        0.315225096   1.365303319   5.825321727
H        0.132287751   6.534062414   0.994439326
H       -0.098242417   6.291254136   6.835060049
H        5.539436147   4.874094162   1.148918987
H        5.913762350   4.648437963   6.727604401
H        5.788317978  -1.374607803   0.200299601
H        5.460740384  -0.690843402   6.826862814
H       -1.282291659   5.806382106   0.151156053
H        0.241094534   4.524960988   6.785491115
H       -1.072372778  -0.920784467   0.530450090
H       -1.003240594   0.490890173   6.689294473
H        1.163117347  -0.769970613   5.072241768
H        1.234591950   0.692956293  -0.459378982
H        0.092544281   6.347949998   4.423447270
H        1.485272348   4.713861875   0.154645259
H        5.902588356   0.928017712   4.348334912
H        6.012204333   1.593873372   0.095404228
H        5.782762396   7.170889537   5.128005882
H        5.976949962   6.494252843  -1.325325131
H        0.323992951   4.691968443   4.343342208
H        0.202693888   4.030692901  -0.647836202
H       -0.060372354  -1.584687998   5.887574928
H        0.021972947   0.016233514  -1.403127730
H        7.148408896   6.505854997   5.794965356
H        5.760366487   4.833044479  -1.254310578
H        5.783942621  -0.741583462   4.425257368
H        7.081545136   0.515131732  -0.590500025
H        1.110910142  -0.963425933  -0.573996253
H        1.104950413  -0.721033140   6.740744566
H        0.209488673   4.099005037   1.030800604
H        1.465419301   5.675914623   5.062916000
H        6.933508543   0.585930389   1.069965939
H        7.066431432   0.037838240   5.137171762
H        7.119015613   5.519015903  -0.598652435
H        5.940232033   7.085990757   6.795951139
