CRYSTAL
PRIMVEC
11.2820 0 0
0 11.1747 0 
0 0 11.3552
PRIMCOORD
96 1
Pb       2.841864145   2.853410399   2.832545569
Pb       2.865331331   2.932912675   8.461083256
Pb       2.926107995   8.434947209   3.160923884
Pb       2.904439729   8.472758054   8.779232433
Pb       8.526165861   2.694227007   2.642410709
Pb       8.442820642   2.799979975   8.320842699
Pb       8.696111825   8.256260160   3.105029306
Pb       8.520665127   8.478750352   8.714961547
Cl       3.345744363   3.277349215   5.611623131
Cl       2.526744791   2.473926411  -0.051136463
Cl       2.766839988   7.716405116   5.978689431
Cl       3.233029756   8.878924199   0.297585157
Cl       7.968390144   3.085682503   5.413502024
Cl       8.916108712   2.255351331  -0.280513925
Cl       8.772824098   7.735685021   5.967129813
Cl       8.552908904   8.414075668   0.273753744
Cl       2.627369973   0.103020498   3.522899790
Cl       2.762893667   0.127878989   8.492025963
Cl       3.472290244   5.694996225   2.537170193
Cl       2.399009320   5.710685593   9.238889295
Cl       8.878914529  -0.061242927   3.417504705
Cl       8.466625488   0.064282137   7.677763735
Cl       7.974232672   5.520338980   2.563376951
Cl       8.944096884   5.669151196   9.010683910
Cl       5.647378257   2.198946133   2.553270227
Cl       5.651068971   2.572696739   8.971380504
Cl       5.823183646   8.552762018   3.515427435
Cl       5.714124497   8.114926825   8.896327497
Cl       0.014919983   2.823096933   3.135088207
Cl       0.021508848   2.716632966   7.927645768
Cl       0.191299610   7.894694490   2.751028140
Cl       0.067713542   8.700833423   9.051443282
C        5.783552911   5.571829255   6.570343049
C        5.748235369   5.139345395  -0.248941765
C        5.176641353   0.015269806   6.249487208
C        6.245883437  -0.403514729   0.110132121
C        0.016005914   5.141184550   5.427794931
C        0.010079823   5.106262440   0.769315186
C        0.234536018  -0.870940399   5.893569450
C        0.091804416  -0.242021597   0.696100440
N       -0.062973306   6.277433442  -0.145384628
N        0.098537501   6.000131312   6.644179746
N        0.172242424   0.382133729  -0.655328912
N        0.034341649   0.536275615   5.455839999
N        5.729488912   6.485663892   0.389743409
N        5.724324361   5.522862759   5.082637807
N        5.013971149   0.419097877  -0.033919276
N        6.194523602   0.155428967   5.170725671
H        4.940782792   6.170546898   6.928435929
H        6.594502454   5.096501401  -0.942437659
H        4.189359970  -0.077399213   5.786548677
H        7.118762559   0.257348768   0.062290274
H        0.867379226   4.453867352   5.429660965
H        0.010692941   4.189247331   0.171086612
H        0.260214776  -1.506972048   5.001062371
H       -0.827544296  -0.834566032   0.753352145
H        6.268932491  -1.136471910  -0.701598308
H        5.218206053   0.902859417   6.887610820
H        4.803222241   5.000406152  -0.783987713
H        6.733117732   6.030246363   6.865082075
H        0.079675442   0.556506869   1.446721158
H       -0.598818173  -1.156434714   6.540847894
H       -0.858506132   5.134301135   1.434003390
H        0.050687242   5.792164273   4.546504712
H        5.855582233   4.383673339   0.537503000
H        5.714977454   4.545128728   6.945719739
H        6.209107248  -0.921775005   1.074832158
H        5.418434587  -0.876554074   6.839542603
H        0.932183486   5.183869883   1.354343145
H       -0.924584199   4.580693125   5.454147916
H        0.967670283  -0.883928798   0.836086529
H        1.182637250  -0.935654501   6.435424152
H       -0.841811983   0.613767401   4.907867128
H       -0.652109684   0.998550457  -0.799075185
H        0.970907023   6.563501063   6.622682668
H       -0.902034025   6.222718090  -0.755110527
H        5.995294849   0.956314189   4.547812469
H        5.033220078   0.984022961  -0.902580899
H        5.772001775   6.465236397   4.658398016
H        5.625934705   7.224146347  -0.327128977
H        0.087651505   5.431163944   7.500044746
H        0.764821689   6.297078404  -0.770994668
H        0.805138473   0.814622623   4.826251490
H        0.205347487  -0.341152395  -1.393078779
H        4.844524614   5.078063088   4.777186747
H        6.607936313   6.644724237   0.906257812
H        6.215827109  -0.695427006   4.577241864
H        4.947277935   1.083761609   0.758122917
H        1.021343739   0.974120505  -0.720603346
H       -0.003393254   1.195924202   6.256700697
H       -0.106122298   7.154118637   0.392020226
H       -0.716477830   6.643503313   6.666542614
H        4.177586718  -0.188249913  -0.035883287
H        7.134306248   0.293597068   5.572721796
H        4.944163865   6.538203825   1.063563713
H        6.510692248   4.964626403   4.711785461
