CRYSTAL
PRIMVEC
11.2820 0 0
0 11.1747 0 
0 0 11.3552
PRIMCOORD
96 1
Pb       2.992003594   2.978908574   2.931163004
Pb       2.915787158   2.591159970   8.638142656
Pb       2.909231527   8.588465824   2.947724599
Pb       2.846397372   8.229137322   8.608563931
Pb       8.513418237   2.977697246   2.965075982
Pb       8.493863160   2.552026082   8.568596642
Pb       8.621728541   8.526188118   3.009257438
Pb       8.488671950   8.105772747   8.570730069
Cl       2.800170114   2.989849811   5.810844314
Cl       2.677840691   2.663120719   0.131426695
Cl       3.156558391   8.218459551   5.757088844
Cl       2.933328034   8.213610684   0.095932456
Cl       8.748251046   2.779723694   5.783425624
Cl       8.644621971   2.498491600   0.112323947
Cl       8.275952066   8.268347350   5.779115650
Cl       8.459376920   8.383539358   0.094203386
Cl       2.302935816   0.210312777   3.141569141
Cl       3.318713681  -0.180705192   8.213514757
Cl       3.513380181   5.794296014   2.899895327
Cl       2.249901802   5.408802369   8.629763972
Cl       9.122036795   0.171269639   3.021229388
Cl       7.883555382  -0.270731514   8.556321381
Cl       8.109231010   5.762345770   2.641296010
Cl       9.238228698   5.321358772   8.759770459
Cl       5.752409745   2.386576403   2.588167267
Cl       5.712834523   3.106836441   8.343386606
Cl       5.778603026   9.134082621   2.902709070
Cl       5.653954516   7.528289492   8.755062514
Cl       0.105806854   3.240439260   3.239763171
Cl       0.085376064   2.067075551   8.410572295
Cl       0.132027265   8.104089404   2.690549414
Cl       0.020179063   8.553791961   8.583004573
C        6.023333728   5.257554729   5.450172379
C        5.658589099   5.038863454  -0.202490519
C        5.760146169   0.484733496   5.358558776
C        5.376281635   0.097270492  -0.237283176
C        0.018593890   6.096741093   5.438804737
C        0.003765696   5.289565596   0.484524507
C        0.017323450  -0.716696918   5.755559078
C        0.141610934  -0.360664048  -0.114261406
N        0.050328984   6.586801961  -0.245110907
N        0.038743330   4.886538009   6.307904385
N        0.094045645   0.886203067   0.699651759
N        0.143886021   0.739656845   5.483936161
N        5.702627090   6.312830400   0.571034646
N        4.786885076   5.497895431   6.245773949
N        6.663758254  -0.057448570   0.497507649
N        5.735577191  -0.754740263   6.186491477
H        6.531758598   4.378404699   5.860035563
H        6.503059521   5.022123638  -0.898641948
H        5.677200345   1.348668685   6.028857020
H        5.595690805   0.337976343  -1.282434925
H        0.898178636   6.076532348   4.786999634
H       -0.910960640   4.761688274   0.192120911
H       -0.028220602  -1.246395032   4.797048663
H        0.125696642  -0.085986414  -1.174543814
H        4.804388994   0.902766649   0.236254537
H        4.918400906   0.454419925   4.659350390
H        4.718215434   5.004943524  -0.762653320
H        6.669175092   6.139710710   5.524614128
H       -0.731128709  -0.976299425   0.131122933
H       -0.895325965  -0.891180288   6.334160671
H        0.002219614   5.497537125   1.558127834
H        0.033140618   6.985954187   6.079816641
H        5.719497898   4.201458064   0.502600936
H        5.738103640   5.091975407   4.406323894
H        4.822091073  -0.847062707  -0.176442386
H        6.703609830   0.516275662   4.803486202
H        0.887226560   4.704302702   0.205711519
H       -0.892795342   6.075694623   4.831821430
H        1.063299947  -0.903248436   0.125305865
H        0.892825203  -1.038527906   6.328417052
H       -0.674290102   1.091346613   4.967231234
H       -0.771118034   1.426103302   0.501638803
H        0.885562363   4.872224346   6.906112592
H       -0.761942611   7.180409441  -0.007601516
H        4.854024607  -0.800873888   6.731806303
H        7.221719073   0.816898281   0.477180690
H        5.016134979   5.659082014   7.237189125
H        5.645469893   7.116349422  -0.068405510
H        0.018029913   4.035880571   5.730293658
H        0.038224082   6.445001910  -1.264792084
H        0.976004316   0.921524503   4.898507156
H        0.914718078   1.493936364   0.496480569
H        4.145197183   4.683473180   6.187158455
H        6.578516564   6.369051533   1.124304883
H        6.517344621  -0.750062105   6.870798921
H        7.244254434  -0.811632496   0.091269772
H        0.105692548   0.678532803   1.706540572
H        0.213488219   1.270860092   6.375973503
H        0.908146663   7.120660166  -0.012277007
H       -0.772632131   4.876439441   6.954882909
H        6.483024220  -0.316789539   1.481972321
H        5.816309424  -1.590746956   5.594134886
H        4.912908919   6.351854941   1.243368818
H        4.271685902   6.336367729   5.911596847
