CRYSTAL
PRIMVEC
11.2820 0 0
0 11.1747 0 
0 0 11.3552
PRIMCOORD
96 1
Pb       2.754779830   2.807605082   3.017231544
Pb       3.021022492   2.853807713   8.713991481
Pb       2.752879066   8.408545958   3.036690897
Pb       3.025699550   8.425216669   8.729115813
Pb       8.421988219   2.782671201   2.883907201
Pb       8.631647714   2.800187886   8.521263661
Pb       8.433907428   8.351925394   2.898626270
Pb       8.641024196   8.395107312   8.534289782
Cl       2.848285150   2.238495750   5.889551111
Cl       3.127764110   3.099807847   0.182762597
Cl       2.807330407   9.010003665   5.909855672
Cl       3.220078440   8.171717586   0.205545299
Cl       8.864402453   3.411673458   5.738670583
Cl       8.612301097   2.678346496   0.029785703
Cl       8.918767006   7.755272065   5.761542197
Cl       8.520634553   8.458469931   0.048319518
Cl       2.639601017   0.019543650   2.698420008
Cl       3.246523135   0.052342275   9.186008807
Cl       3.054851136   5.608813505   3.112379175
Cl       2.896161965   5.643013189   8.209762634
Cl       8.682051662  -0.020600692   2.661051839
Cl       8.751367564   0.011147772   7.989475420
Cl       7.901352668   5.569587689   2.455660617
Cl       8.809299861   5.596841284   8.942861697
Cl       5.591230853   2.553411655   2.668020447
Cl       5.827047969   2.900436688   8.116022603
Cl       5.596320149   8.639606227   2.806347368
Cl       5.837875730   8.335144121   8.082359916
Cl      -0.056179262   3.124511079   2.590349364
Cl       0.184553544   2.625343086   8.533587344
Cl      -0.051765861   8.018104956   2.549923645
Cl       0.189155725   8.677969454   8.662553988
C        5.390416976   5.598454407   5.419257782
C        5.908746625   5.583830017  -0.558094523
C        6.143457455   0.103987440   5.367730812
C        6.196697093  -0.003169479  -0.325488667
C        0.633509049   5.561349431   5.456525606
C        0.508555291   5.602105391  -0.380617871
C       -0.347389438   0.014461383   5.145543860
C        0.340882351  -0.015625178   0.360071581
N       -0.636452371   5.557628589   0.571002333
N       -0.047517580   5.560066220   6.784347121
N       -0.961432250  -0.049515135  -0.366628315
N        0.544142333   0.041244296   6.340597164
N        5.157733537   5.603182618   0.724847283
N        6.588251322   5.606540976   6.306876323
N        5.115578566  -0.032329497   0.697690743
N        5.335265137   0.038960452   6.618810986
H        5.733711828   5.600910486   4.379833390
H        6.556539906   6.466318508  -0.596996088
H        7.203593654   0.130683991   5.643108667
H        7.156888306   0.018218841   0.200292678
H        1.709560316   5.460853133   5.622088217
H        1.437993792   5.612840533   0.198743481
H        0.278761768   0.012269281   4.245884642
H        0.124768908   0.041177733   1.430019220
H        6.072010409   0.896383094  -0.938949761
H        5.862915975   1.008888265   4.817426013
H        5.188329425   5.596246916  -1.385373203
H        4.793094705   6.492664461   5.628625294
H        0.904959135   0.867236550   0.038754780
H       -0.985711303   0.904413361   5.166920418
H        0.426550433   6.513389436  -0.983473160
H        0.402910733   6.505315619   4.949762072
H        6.518394886   4.674138005  -0.592066674
H        4.805395108   4.695977200   5.629312245
H        6.116105147  -0.902899800  -0.946015527
H        5.924129515  -0.781545171   4.760528136
H        0.469809637   4.711648468  -1.017340368
H        0.247355013   4.720365071   4.869176471
H        0.897946499  -0.931077535   0.131709813
H       -0.961541146  -0.891666070   5.189495175
H        1.158586266   0.880465597   6.326456153
H       -1.519578062   0.805880936  -0.162870915
H        0.305129332   6.318948576   7.384618134
H       -0.609383615   6.387184389   1.198475907
H        5.503704124   0.873878879   7.211230199
H        5.159344709   0.806663680   1.310468675
H        7.186586694   6.440160959   6.139198621
H        4.564697401   6.451200221   0.790031085
H        0.099422908   4.667977140   7.288205230
H       -0.573852652   4.713221956   1.176131894
H        1.176409232  -0.786313446   6.343870709
H       -1.525670692  -0.877021164  -0.082999014
H        7.195153493   4.778047170   6.137819101
H        5.819876800   5.591342586   1.520385236
H        5.552413633  -0.817276519   7.164121312
H        5.196934505  -0.866232093   1.312664146
H       -0.833393705  -0.106924404  -1.384744314
H       -0.010400685   0.045001080   7.205183057
H       -1.537324492   5.544173751   0.076804969
H       -1.061707631   5.695217823   6.674855210
H        4.189035414  -0.055958517   0.250393914
H        4.329075127   0.015623065   6.405220271
H        4.532462780   4.779368783   0.794530024
H        6.320235162   5.604850918   7.296015914
