CRYSTAL
PRIMVEC
11.2820 0 0
0 11.1747 0 
0 0 11.3552
PRIMCOORD
96 1
Pb       2.983659049   2.780866714   3.009993626
Pb       2.928348948   2.861949653   8.652601581
Pb       2.875087422   8.442314861   2.971828698
Pb       2.786349258   8.425261978   8.652930571
Pb       8.645926063   2.582881277   2.950124224
Pb       8.409201082   2.648684578   8.661217411
Pb       8.509213711   8.231111066   2.932681567
Pb       8.395794379   8.259505533   8.672849556
Cl       2.904437491   2.964882212   5.846397387
Cl       2.821264199   2.656549094   0.136428673
Cl       2.763153334   8.037532037   5.830524324
Cl       3.436096524   8.771749457   0.112025922
Cl       8.778826110   2.431522815   5.825608898
Cl       8.871384615   3.040590823   0.107488706
Cl       8.546868284   8.127127241   5.827022362
Cl       7.961991491   7.796543773   0.132330368
Cl       2.972315081   0.005674993   3.773954485
Cl       2.072818924   0.075441824   8.504804882
Cl       2.989456339   5.605945423   2.735548591
Cl       3.711709687   5.675192239   8.867783423
Cl       8.520177948  -0.197789125   2.245173141
Cl       9.032905309  -0.128982987   9.019982278
Cl       8.839640864   5.395050176   3.159026324
Cl       7.869072806   5.448610788   8.331303627
Cl       5.811793256   2.745219800   3.255469400
Cl       5.614690987   1.797420059   8.766643469
Cl       5.679570286   8.184436073   3.100175475
Cl       5.564591410   8.952667964   8.375168419
Cl       0.175818354   2.306336322   2.955823904
Cl      -0.007588230   3.136681046   8.404551346
Cl       0.046768041   8.176295377   2.446306319
Cl      -0.102450457   7.483805999   8.772564262
C        5.763817705   5.328943468   5.350936596
C        6.066929471   4.854734832   0.336222805
C        6.442642396  -0.315927122   5.443869161
C        5.640340566   0.506716466   0.684477632
C        0.357823888   5.472331118   5.191892939
C        0.502189991   5.016439202   0.239053576
C       -0.253390659  -0.554686534   5.452992528
C        0.233870260  -0.341862831   0.400284266
N       -0.644445272   5.964781186   0.224539470
N       -0.740871740   5.438303041   6.201544275
N        0.109813456   0.976574418  -0.282148863
N        0.327746339   0.742882812   5.893511079
N        5.131651293   6.011169255   0.381637097
N        5.648131221   6.576129873   6.156870922
N        6.132346045  -0.601649594  -0.177169444
N        5.433854804   0.746152453   5.714379133
H        6.672432605   4.799475708   5.658713307
H        6.725334041   4.979583139  -0.529706795
H        7.409968308   0.013791760   5.837009819
H        4.693683520   0.869550642   0.273172013
H        0.254042822   6.381683697   4.590554248
H        1.432145727   5.590587227   0.174852044
H        0.551826521  -1.296623419   5.395778058
H        0.249390310  -0.170279664   1.480475707
H        6.387984165   1.305811159   0.686768668
H        6.505637070  -0.468038250   4.360760827
H        5.477921971   3.934712064   0.244202004
H        5.822515565   5.604084184   4.294328317
H        1.164111092  -0.817151360   0.068442021
H       -0.713936158  -0.414979696   4.467109601
H        0.404247038   4.345909500  -0.619963026
H        0.262659871   4.589660728   4.549986729
H        6.654616267   4.841862961   1.260214671
H        4.877742475   4.711848914   5.532989351
H        5.503535338   0.122005453   1.700040491
H        6.124729164  -1.234758226   5.943038032
H        0.477480869   4.449299249   1.175208332
H        1.317877603   5.466145955   5.716681557
H       -0.633433321  -0.953906188   0.134347577
H       -1.006156067  -0.864007277   6.185721006
H        1.011235193   1.089478554   5.206548798
H        0.931420873   1.576806500  -0.068482396
H       -1.658497020   5.475127287   5.739058270
H       -0.667304609   6.480573399  -0.676208267
H        5.651908380   1.596014072   5.160221731
H        6.290164154  -0.278846080  -1.142859159
H        6.471780488   7.186062389   6.006167725
H        4.597897632   6.074026591  -0.507679555
H       -0.676735712   6.234949216   6.858952629
H       -0.546395755   6.663516505   0.989831343
H        0.822868650   0.635345494   6.802244311
H       -0.745157278   1.488021839   0.002179075
H        5.600360286   6.362226013   7.162590883
H        5.652190125   6.889572002   0.512905605
H        5.400156787   0.999656869   6.720708232
H        5.423200284  -1.359244048  -0.214946502
H        0.073103631   0.854193115  -1.303148891
H       -0.416401124   1.455385812   5.995502056
H       -1.534291531   5.464549298   0.350274629
H       -0.686548775   4.579942646   6.780141885
H        7.012554289  -0.995226755   0.188126246
H        4.494553438   0.448807919   5.392386892
H        4.450539105   5.920889429   1.164465733
H        4.788253681   7.107593745   5.916525693
