CRYSTAL
PRIMVEC
11.2820 0 0
0 11.1747 0 
0 0 11.3552
PRIMCOORD
96 1
Pb       3.083982999   2.820565084   2.913529645
Pb       2.900520552   2.717174110   8.548192631
Pb       2.773673964   8.415240854   3.173921067
Pb       2.699281572   8.325867912   8.692683887
Pb       8.757013230   2.952448440   2.871930939
Pb       8.505640150   2.878937980   8.538377076
Pb       8.550216141   8.475395526   2.935305452
Pb       8.276675433   8.415154177   8.634924403
Cl       3.104072042   2.289861448   5.702565790
Cl       3.068602439   3.333854579   0.041772219
Cl       3.011572664   8.991035462   5.938538768
Cl       2.480390376   8.144948839   0.286755283
Cl       8.630438859   3.503055528   5.701913647
Cl       8.321533024   2.957595906   0.053228722
Cl       8.505438356   7.926150203   5.749392759
Cl       8.337339964   8.783222925   0.107919615
Cl       3.362891310  -0.030104815   2.471812532
Cl       2.997760975  -0.059050617   9.476589386
Cl       2.874546506   5.594916683   3.248810221
Cl       2.629667071   5.533262883   8.303683885
Cl       8.222089474   0.136033489   3.520357459
Cl       8.624901605   0.066708984   8.448440455
Cl       9.258695437   5.734141274   2.641273416
Cl       8.380899502   5.669680506   8.874983558
Cl       5.907527371   3.094467529   3.049373488
Cl       5.694406111   2.794315495   8.579878218
Cl       5.651406954   8.353709667   3.128717746
Cl       5.481799178   8.046041460   9.081295398
Cl       0.276216352   2.521487811   2.472654346
Cl       0.060519595   2.905844044   8.469776840
Cl       0.012734194   9.148844257   3.074557837
Cl      -0.147374524   8.449661795   8.246854802
C        5.284321877   5.620276321   6.122268198
C        5.757059989   6.027815807   0.665288291
C        5.989801845  -0.255928897   6.370342670
C        6.113468146   0.449179291   0.131316169
C        0.415103160   5.710744506   5.483811061
C       -0.250582107   5.664716129  -0.420662658
C        0.355074225   0.399681633   5.780053227
C       -0.372121937   0.028364740  -0.436679210
N        0.706035263   5.524589475   0.714719830
N       -0.403332606   5.624659634   6.722370820
N        0.772003481  -0.014771216   0.516906324
N       -0.872700997  -0.441772595   5.857639532
N        5.805893824   5.038040070  -0.447062218
N        6.173497923   5.686632139   4.925514840
N        5.425133430  -0.872652765   0.165149599
N        5.344089802   0.079655606   5.072979153
H        4.248727000   5.543335464   5.776562555
H        4.897400100   6.688698865   0.508476175
H        5.244991524  -0.733899665   7.016468943
H        6.736641487   0.497770101  -0.767452903
H        1.442392079   5.960809372   5.764994833
H        0.327688320   5.715566101  -1.349809930
H        0.826474382   0.241579897   4.804789549
H       -0.351436587  -0.875921681  -1.053579087
H        6.735986347   0.540932376   1.027564929
H        6.352262046   0.667856015   6.830496211
H        6.688257161   6.604697133   0.657284564
H        5.420488755   6.530543491   6.716969208
H       -0.263767013   0.915372513  -1.070078767
H        1.038871790   0.095883241   6.579354559
H       -0.834684477   6.579985221  -0.274209973
H       -0.015680799   6.480403899   4.832862179
H        5.644967928   5.477772038   1.605328240
H        5.554206640   4.736731177   6.711546210
H        5.352664345   1.237223261   0.107837186
H        6.821286275  -0.941862003   6.171990976
H       -0.918668075   4.797646863  -0.428183724
H        0.389251993   4.740164530   4.975932212
H       -1.308364218   0.074532679   0.128826829
H        0.067732028   1.448630859   5.906841204
H       -0.647623070  -1.443042150   5.824766868
H        1.666582840  -0.064264089  -0.002943746
H       -0.393827085   6.526118581   7.239737983
H        1.331273351   6.355667718   0.757722073
H        4.587618428   0.783118637   5.208982589
H        6.119862231  -1.637837523   0.137860775
H        5.952296003   6.519279585   4.345322870
H        5.912585908   5.510781427  -1.354502113
H       -0.048160666   4.881074801   7.353082485
H        1.317074217   4.696242952   0.596035929
H       -1.521681888  -0.240675038   5.071088045
H        0.712438338  -0.832661452   1.144321574
H        6.067123718   4.834634758   4.337088588
H        4.940087784   4.466294751  -0.466081248
H        4.927289428  -0.756165378   4.643985687
H        4.785280551  -0.964942821  -0.640877585
H        0.774391499   0.827381875   1.123650771
H       -1.391545452  -0.273461011   6.746255377
H        0.191984801   5.436446517   1.603216458
H       -1.379292003   5.379125960   6.498180579
H        4.847803134  -0.946142195   1.020577176
H        6.043589759   0.450862405   4.409375258
H        6.609528714   4.387347770  -0.337542252
H        7.161324964   5.754671766   5.204749581
