CRYSTAL
PRIMVEC
11.2820 0 0
0 11.1747 0 
0 0 11.3552
PRIMCOORD
96 1
Pb       2.769131344   2.745498743   2.934234227
Pb       2.765832369   2.874054545   8.610406738
Pb       3.098026471   8.314887576   3.203466277
Pb       2.917901839   8.448982958   8.876305526
Pb       8.411937166   2.834844893   2.768417726
Pb       8.460259608   2.842635822   8.492647172
Pb       8.676591848   8.386946006   2.892133434
Pb       8.585495380   8.425490863   8.595859561
Cl       2.925914596   2.199653282   5.785379807
Cl       2.495491260   3.227946616   0.085038021
Cl       3.343229992   8.824225810   6.071269185
Cl       3.094853463   8.261932722   0.373180039
Cl       8.373510190   3.429818610   5.641636243
Cl       8.853250501   2.517811277  -0.038489771
Cl       8.306719520   7.846484385   5.736229591
Cl       8.938763151   8.804382673   0.043201059
Cl       3.407054714  -0.079557915   2.723632634
Cl       2.698880454   0.101603609   9.000867708
Cl       2.315130111   5.532882021   3.247143775
Cl       3.366958040   5.687106617   8.552239997
Cl       8.077358570  -0.002348878   2.826518164
Cl       8.256730330   0.039559462   8.304575079
Cl       9.131518410   5.600067111   2.420480343
Cl       8.967529731   5.616969718   8.865877397
Cl       5.565285340   3.372068016   2.546933369
Cl       5.614479605   2.901828273   8.535853346
Cl       5.935860379   7.831731366   2.602524296
Cl       5.720485434   8.678645805   9.086477959
Cl      -0.064581101   2.585519933   3.124050269
Cl      -0.031522811   2.612060747   8.453008128
Cl       0.285407027   8.670010271   3.590197855
Cl       0.067920668   8.836085564   8.322707023
C        4.973009875   5.481605092   5.428705253
C        6.315036264   5.594259740  -0.258186540
C        6.125789184   0.119179533   5.485286394
C        5.742635157   0.586170610  -0.194350750
C        0.586743161   5.598550602   6.290781394
C        0.530604259   6.178492018  -0.110208071
C       -0.696753612   0.143814533   5.680427261
C        0.586778618  -0.027484537   0.568681625
N       -0.269362292   4.926039960  -0.051648136
N       -0.409948604   5.626250623   5.180564080
N       -0.345678777   0.068424245  -0.592657090
N        0.722645531  -0.274100317   5.858299038
N        4.935556428   5.537790711   0.301598056
N        6.069583795   5.559897673   6.439477135
N        5.792594030  -0.671758611   0.603443652
N        5.354093518   0.044753609   6.758374268
H        5.405828895   5.610513084   4.431142633
H        6.641348227   4.571882929  -0.477155929
H        6.807150427   0.975755712   5.537097777
H        6.635952742   0.634884456  -0.824898055
H        0.046037001   5.538059305   7.241838969
H        1.225904305   6.106228342  -0.954480913
H       -0.831964172   0.484182625   4.649414521
H        0.002571351   0.053831909   1.491827002
H        5.715590729   1.434931179   0.499322755
H        5.420153307   0.234109387   4.654411100
H        6.972531870   6.051663913   0.489445067
H        4.250061882   6.273716097   5.647492257
H        1.310875697   0.790518461   0.500483101
H       -0.912857722   0.952885483   6.384404616
H        1.092815608   6.272262024   0.824331201
H        1.184006094   6.515841505   6.241077015
H        6.295641860   6.197174095  -1.170925501
H        4.494995006   4.499558883   5.514196892
H        4.839304885   0.568224364  -0.813121613
H        6.698784241  -0.807753407   5.373676049
H       -0.152320977   7.026647597  -0.237730507
H        1.228834098   4.721670180   6.150310054
H        1.107434708  -0.990202869   0.525867058
H       -1.334419028  -0.722236202   5.888771636
H        1.384918663   0.519377468   5.767293692
H       -0.902224433   0.943091262  -0.552678293
H       -1.029408633   6.450151497   5.252560538
H        0.359904738   4.108553360   0.015891848
H        4.807950862   0.904192641   6.904278311
H        6.623439979  -0.674905204   1.222699144
H        6.599521837   6.446885327   6.351980964
H        4.938280857   4.949843266   1.159921748
H       -1.023910145   4.792895936   5.195546807
H       -0.869741677   4.832452516  -0.887909413
H        0.948425295  -0.997661736   5.151229538
H       -1.017087027  -0.724514359  -0.569919995
H        6.759656611   4.796330744   6.286277191
H        4.275503438   5.117838452  -0.367774165
H        5.995014595  -0.078551129   7.559045717
H        5.821356878  -1.496799619  -0.013907049
H        0.170177924   0.044208992  -1.482556844
H        0.855749717  -0.709035101   6.785699556
H       -0.896209340   4.946043007   0.777192366
H        0.073807496   5.659053637   4.268499089
H        4.959153685  -0.740422611   1.216635758
H        4.689322452  -0.752898124   6.723271524
H        4.576156196   6.481377860   0.530981862
H        5.678264128   5.469218700   7.387880635
