CRYSTAL
PRIMVEC
11.2820 0 0
0 11.1747 0 
0 0 11.3552
PRIMCOORD
96 1
Pb       2.979884402   2.922139837   2.756147407
Pb       2.907893198   2.837879129   8.514385884
Pb       2.927757812   8.373341524   3.090348799
Pb       2.873257373   8.411168214   8.757741902
Pb       8.739733782   2.816546230   2.817350617
Pb       8.480952177   2.723585585   8.471929976
Pb       8.504396893   8.295865021   3.138117742
Pb       8.370212959   8.355285970   8.693116684
Cl       3.014874291   3.070166993   5.625736089
Cl       3.318991922   2.378064302  -0.041061618
Cl       2.665718485   8.400538377   5.917623845
Cl       2.753130376   8.914373207   0.252107416
Cl       8.653384110   3.430973248   5.675791267
Cl       8.108898179   2.647006165  -0.001780534
Cl       8.902886849   7.929784614   5.938285561
Cl       8.263994693   8.325538601   0.247950779
Cl       3.467857605   0.073932341   3.179049780
Cl       2.335781715   0.000270562   8.254203944
Cl       2.386309856   5.683187166   2.431789779
Cl       2.797546083   5.604322157   8.699521912
Cl       8.301711793  -0.011559760   2.881032271
Cl       8.856056647  -0.079851912   8.069011274
Cl       9.159916584   5.610810145   2.549302061
Cl       8.235741462   5.526394095   8.915775407
Cl       5.873949374   3.243509703   2.810026599
Cl       5.692747708   2.502595001   8.016013088
Cl       5.724230748   7.422592875   3.223142030
Cl       5.614213355   8.890660286   8.289761520
Cl       0.240726844   2.303644563   2.334408596
Cl       0.054137180   2.838226664   8.630768269
Cl       0.079801816   8.774293320   3.087865890
Cl      -0.016691957   8.113083741   8.874003085
C        5.627439673   6.001694224   6.516113746
C        5.310372740   5.709007801  -0.246800679
C        6.126530379  -0.136429358   5.348040155
C        5.768319906  -0.242415463  -0.396381839
C        0.397578143   5.579097604   5.512895260
C        0.000514516   5.181128238  -0.215847661
C        0.103256759   0.469106174   5.254936340
C       -0.617308305  -0.268902569  -0.004890488
N        0.066749005   6.543175629   0.385894382
N       -0.295894039   5.545152820   6.833467887
N        0.755659587   0.298965535  -0.125564980
N        0.003559341  -0.767087134   6.081182668
N        6.586062011   5.555631767   0.507119107
N        5.723694402   4.947632560   5.468987278
N        5.803250727   0.456098838   0.918203664
N        4.875132390   0.035564493   6.134112644
H        4.689037776   6.548598545   6.376620836
H        5.551077673   5.845074901  -1.306414053
H        6.031454200  -1.040920727   4.736587717
H        6.646920991   0.063080309  -0.975959618
H        1.477429132   5.557636124   5.686435572
H        0.860563161   5.056752959  -0.881122154
H        1.031642700   0.431108565   4.674761684
H       -0.732580065  -1.059153584  -0.752751563
H        4.850651888   0.047396431  -0.918724415
H        6.968139729  -0.226810024   6.044734857
H        4.774188696   6.581927383   0.144681163
H        6.478333420   6.679978942   6.397969299
H       -1.344988792   0.532061502  -0.176902659
H        0.101089161   1.335590077   5.926705275
H       -0.933107954   5.096061379  -0.782000830
H        0.106645473   6.496329732   4.988980458
H        4.704842580   4.805575556  -0.109341318
H        5.652886951   5.520325638   7.498046679
H        5.787602392  -1.322053527  -0.223231491
H        6.251936855   0.737213784   4.701016929
H        0.028892090   4.444015251   0.594157241
H        0.082974623   4.702384665   4.936642130
H       -0.734179690  -0.673327495   1.006148167
H       -0.752900959   0.497784239   4.572617392
H        0.813573492  -0.834372976   6.720597035
H        0.934415179   0.668724616  -1.069385729
H       -0.052167644   6.363483899   7.421529362
H        0.071381172   7.265332410  -0.354022073
H        4.724062985  -0.775325895   6.755454761
H        5.808181334   1.477234159   0.793413905
H        5.710200976   5.384701535   4.533550522
H        7.199638702   6.386229897   0.382484419
H       -0.064839592   4.687122817   7.371386702
H        0.917693949   6.627551482   0.967765831
H       -0.014953523  -1.603429059   5.479095973
H        1.474754049  -0.429042906   0.058895332
H        4.930664927   4.279337401   5.526724840
H        7.110225218   4.714769801   0.201653877
H        4.070129404   0.136912963   5.497668502
H        6.656711369   0.218485571   1.465921639
H        0.876901927   1.066748514   0.560221837
H       -0.853788323  -0.744488236   6.667285199
H       -0.743878865   6.688735900   1.007949370
H       -1.317067390   5.560632479   6.705487983
H        4.978794039   0.228971196   1.506405468
H        4.950228571   0.880774623   6.732957612
H        6.405448561   5.454823211   1.515065374
H        6.606304685   4.406485010   5.550769445
