CRYSTAL
PRIMVEC
11.2820 0 0
0 11.1747 0 
0 0 11.3552
PRIMCOORD
96 1
Pb       2.902449596   2.892360215   3.060564330
Pb       3.036348703   2.859893280   8.681765450
Pb       2.779878276   8.464441937   2.702978122
Pb       2.889528544   8.512664873   8.412897301
Pb       8.499158651   2.734706093   3.240639781
Pb       8.726555255   2.683623028   8.808468083
Pb       8.347179485   8.331136289   2.877557561
Pb       8.567130252   8.360099717   8.576023037
Cl       2.585854034   2.794345474   5.887920585
Cl       3.374521783   2.980857001   0.188695790
Cl       2.986638118   8.761259132   5.550903740
Cl       2.462588846   8.186625011  -0.146390976
Cl       8.750417109   3.514994129   6.076503339
Cl       8.327696367   2.265582213   0.368839916
Cl       8.309382927   7.823947453   5.752829755
Cl       8.676913324   8.627208908   0.060747032
Cl       2.692346526   0.108424436   2.334918738
Cl       2.320960967   0.122157897   8.878195317
Cl       3.191610759   5.666781430   2.845250118
Cl       3.277759629   5.687839788   8.213296570
Cl       8.574748709  -0.081226439   3.800137995
Cl       8.730850770  -0.078736778   7.842083453
Cl       8.112799811   5.509228110   2.538811071
Cl       8.385192183   5.500513615   9.249508339
Cl       5.694857164   2.524623099   3.179658261
Cl       5.928703389   2.831397714   8.718589061
Cl       5.594588244   9.041260991   2.611310635
Cl       5.772253181   8.539336081   8.343924873
Cl       0.032024624   2.825814603   2.884303477
Cl       0.261965514   3.436982040   9.203131420
Cl      -0.083835818   8.409536333   2.897630902
Cl       0.118387041   7.829591195   8.100812960
C        5.382854109   5.484752816   5.371466906
C        5.513132554   6.273409739  -0.023289954
C        5.271837111   0.331022723   6.148906289
C        5.512740950  -0.376699721  -0.517663131
C        0.320023500   5.925268963   5.118126521
C       -0.004615778   5.342803225   0.772140853
C        0.477654063   0.173325819   5.660845070
C       -0.257102605  -0.151733456   0.012224338
N       -0.170959651   6.385457025  -0.279700016
N        0.308934899   5.036638178   6.313996204
N        0.523611281   1.106450287   0.181981491
N       -0.266450827  -1.118434296   5.679440576
N        6.037256097   4.893749394   0.187451012
N        6.154041307   5.561574338   6.645844989
N        5.582585048   0.537046575   0.656278182
N        6.001976609  -0.860886489   5.636317514
H        6.084025024   5.360026655   4.538859493
H        6.365057566   6.946802225  -0.170123931
H        5.170818801   1.058149772   5.336011671
H        6.327861602  -1.103999335  -0.440217178
H        1.248817396   6.506090123   5.121422178
H       -0.887601242   4.696455621   0.767291454
H        1.521090597  -0.032397484   5.404405451
H        0.133597607  -0.682067348  -0.862903030
H        5.613207028   0.219151811  -1.431713093
H        5.852260057   0.761947057   6.971735139
H        4.939593104   6.559469395   0.863697720
H        4.807874887   6.410845003   5.259715100
H       -1.312237237   0.105584826  -0.119804395
H        0.419244189   0.623279696   6.657151807
H        0.094430103   5.842391355   1.740843863
H       -0.548993116   6.588445564   5.175105323
H        4.864177874   6.271545561  -0.905961746
H        4.696721662   4.633596274   5.430472992
H        4.544694319  -0.890532047  -0.499680108
H        4.284052402   0.011246418   6.499954533
H        0.898720513   4.766111578   0.546963141
H        0.265057521   5.299271528   4.220476647
H       -0.128586318  -0.762445084   0.913221227
H        0.020447399   0.824639805   4.907721157
H        0.098759533  -1.767620622   6.396313627
H        0.463685859   1.724324251  -0.646873053
H        0.414882923   5.594839664   7.173281573
H       -0.988594627   6.995173308  -0.091422575
H        6.936379457  -0.600603634   5.267672475
H        6.476757628   1.066964050   0.666904113
H        6.824002196   6.349448694   6.602260559
H        6.660762122   4.875808212   1.018698706
H        1.082558110   4.343120707   6.271056056
H       -0.318316105   5.948900415  -1.198871895
H       -0.212287630  -1.599257812   4.758943435
H        1.516001276   0.889526717   0.358075093
H        6.703340217   4.706343965   6.812262703
H        6.595712390   4.592848568  -0.624432965
H        5.494659408  -1.315244623   4.859884268
H        5.501953539  -0.002006193   1.533488467
H        0.197445511   1.645978298   1.008948667
H       -1.260306091  -0.950303095   5.893868657
H        0.674073995   6.995898929  -0.330249256
H       -0.588073366   4.514373862   6.366298487
H        4.813482229   1.229702140   0.640554451
H        6.118204154  -1.558414110   6.393679635
H        5.260093433   4.221084917   0.316971737
H        5.504053446   5.700506753   7.437477369
