CRYSTAL
PRIMVEC
11.2820 0 0
0 11.1747 0 
0 0 11.3552
PRIMCOORD
96 1
Pb       2.853241108   2.844620843   3.155570584
Pb       2.783037529   2.870574967   8.716867297
Pb       3.000443516   8.442290926   2.959729588
Pb       2.938642585   8.448440409   8.622025759
Pb       8.513778942   2.691094051   2.983686115
Pb       8.385018751   2.535296682   8.646205383
Pb       8.613878887   8.201411553   2.830592313
Pb       8.520885602   8.231876855   8.570704441
Cl       3.275406888   3.091319864   5.936740898
Cl       2.625946464   2.660551838   0.270342554
Cl       2.675356944   8.550303292   5.794797401
Cl       3.097229376   8.691262304   0.144983358
Cl       7.980874574   2.943149127   5.809902189
Cl       8.700094129   2.486499164   0.159009557
Cl       8.876254627   7.646290710   5.731414315
Cl       8.768345825   8.328203305   0.057025379
Cl       2.279115981   0.027132182   3.062807091
Cl       3.051540985   0.067109924   8.792376073
Cl       3.151994078   5.600187987   2.455658497
Cl       2.855765413   5.650214150   9.264163381
Cl       9.206965821  -0.169184440   3.240570526
Cl       8.499972548  -0.231265324   7.646626260
Cl       7.830045958   5.398743936   2.684379330
Cl       8.507959974   5.356309874   8.636321470
Cl       5.663270446   2.138723345   2.707661481
Cl       5.594100303   2.767218319   9.301426563
Cl       5.852374724   9.034550672   2.949163248
Cl       5.717806810   8.123789032   8.191159491
Cl       0.000099785   3.237608481   3.359944701
Cl      -0.078789586   2.834774367   8.475045137
Cl       0.184407944   7.930163754   2.829657178
Cl       0.069163591   8.468654405   8.670418850
C        5.263637249   6.059471214   5.244558874
C        5.895391651   6.181806736  -0.092143191
C        5.177416633   0.090513816   6.168026396
C        6.153577345  -0.375755774  -0.349850402
C        0.682457770   5.833005107   6.020339763
C       -0.360880314   5.268963049   0.121407380
C        0.351572893   0.351199438   6.160460692
C        0.094706934  -0.220774236  -0.340183998
N        0.488899577   6.484860471  -0.035557412
N       -0.508250635   4.935601742   6.055231833
N        0.070554138   0.827449884   0.719643009
N       -0.053897378  -0.977190780   5.623374515
N        5.492976938   4.841955597   0.420587408
N        6.359011010   5.678915364   6.178600268
N        4.890393370   0.184941851   0.203623884
N        6.323443907   0.070618215   5.213883971
H        5.622135213   5.925101428   4.219078339
H        6.915948935   6.113111679  -0.482073221
H        4.241864070   0.104180009   5.598638919
H        6.910035774   0.417183371  -0.362268354
H        1.585677449   5.212395936   6.025330459
H       -0.385248882   4.728086607  -0.830931953
H        1.109883599   0.775214157   5.493943409
H        0.086516274   0.276363801  -1.316758649
H        5.954574635  -0.738793632  -1.365255962
H        5.254176223   0.989092392   6.788826501
H        5.852918402   6.897369225   0.736645667
H        5.008202851   7.107825138   5.431422584
H       -0.786390148  -0.861302886  -0.225301904
H        0.763007132   0.209432272   7.165270967
H       -1.371878022   5.584398946   0.401767695
H        0.653888589   6.481816597   6.901727684
H        5.199077583   6.472721929  -0.883754616
H        4.399200487   5.415340133   5.433782236
H        6.478764754  -1.199664670   0.293658848
H        5.232349602  -0.807289262   6.791374665
H        0.075690449   4.645579592   0.909886736
H        0.634366810   6.435440908   5.106959305
H        1.010978801  -0.810739743  -0.231682629
H       -0.533672157   0.992438175   6.203294603
H        0.771073302  -1.607850755   5.554816811
H       -0.781575518   1.415056104   0.617929403
H       -0.487026754   4.316557723   6.889631584
H        0.107854930   7.128145188  -0.751139710
H        6.313133714   0.913826246   4.619488552
H        4.504269083   0.908604334  -0.418195827
H        7.192327001   6.282353617   6.024244663
H        6.153589350   4.539007593   1.152226141
H       -0.521493667   4.333418861   5.209760691
H        1.441259185   6.231127568  -0.350650162
H       -0.495595060  -0.871935836   4.692157264
H        0.906271288   1.444554875   0.637814806
H        6.674184986   4.697562415   6.054667188
H        5.481265488   4.134226588  -0.340774799
H        6.263705472  -0.741643487   4.566001757
H        5.049154714   0.624103258   1.128146217
H        0.075657562   0.415115154   1.661517512
H       -0.744949054  -1.420810392   6.242452513
H        0.544902550   7.004773281   0.862107220
H       -1.371539337   5.498749918   6.085578070
H        4.175983753  -0.565387290   0.289222944
H        7.215924341   0.034807890   5.737459233
H        4.555782240   4.894628344   0.861932509
H        6.086198914   5.825219628   7.158666729
