CRYSTAL
PRIMVEC
11.2820 0 0
0 11.1747 0 
0 0 11.3552
PRIMCOORD
96 1
Pb       2.936639028   2.963466393   2.995414049
Pb       2.863994832   2.874393315   8.637290405
Pb       2.939296414   8.546250377   2.972346737
Pb       2.653158171   8.365432320   8.592114344
Pb       8.697584931   2.763793682   2.965554071
Pb       8.495414565   2.724015059   8.580275791
Pb       8.626785281   8.413988939   3.017690432
Pb       8.317633090   8.203733286   8.721482594
Cl       2.535424576   2.941056501   5.791586861
Cl       2.850954301   2.371637904   0.166790893
Cl       2.742049802   8.498988765   5.745738537
Cl       2.904837211   8.608254621   0.076040230
Cl       8.685372908   2.065153073   5.768706704
Cl       8.621504079   3.388049154   0.117004802
Cl       8.509104032   8.353535177   5.892255874
Cl       8.099180981   7.864436635   0.271136604
Cl       2.191146105   0.200579553   3.239336813
Cl       2.458830442   0.051573125   8.479956511
Cl       3.729628573   5.786885707   2.979080229
Cl       3.268262779   5.642588613   8.369408236
Cl       9.124188426   0.024954555   2.274652756
Cl       8.275219794  -0.152747626   8.841259286
Cl       8.176831407   5.588500529   3.470220189
Cl       8.216025695   5.425185744   7.943327004
Cl       5.857940366   2.506122374   2.690448151
Cl       5.677371861   2.518376326   8.857801818
Cl       5.809395980   8.960047536   3.372850454
Cl       5.490181509   8.580431228   8.246217966
Cl       0.172863554   3.661284151   2.883126314
Cl       0.004353091   3.063066987   8.349391472
Cl       0.147770594   7.920295646   2.671509996
Cl      -0.184914235   8.072226829   9.212502501
C        5.502199545   4.907952990   5.796108426
C        5.255155700   5.477528030  -0.346408064
C        5.062026909   0.475009771   5.803809049
C        5.458808454  -0.425903084   0.019531013
C        0.356565240   6.120532377   5.995586736
C        0.881161647   5.374938979  -0.209242189
C       -0.406857004  -0.650756333   5.907529425
C       -0.346272060   0.118420655  -0.589545598
N       -0.439423346   5.886854569   0.253262198
N       -0.543303966   4.954070860   5.760162960
N        0.756483884  -0.094678681   0.388199708
N        0.540770702   0.493063051   5.976888824
N        6.118573633   5.456181668   0.867409839
N        5.739054630   6.377869712   5.743065051
N        6.400797106   0.728467608   0.089706028
N        6.264725985  -0.386014717   5.995226756
H        6.002461423   4.449942788   4.936026882
H        5.886524223   5.394083875  -1.237893172
H        5.191265476   1.048297725   4.879408107
H        5.658553580  -0.987924974  -0.899068308
H        0.289713807   6.793193902   5.134499443
H        1.623193073   6.169515316  -0.068902094
H        0.173957893  -1.573321938   5.799551118
H        0.088171370   0.195035857  -1.590266295
H        4.439632687  -0.026298770   0.001984677
H        4.975167579   1.144840524   6.664082734
H        4.696385315   6.420014551  -0.359483600
H        4.424269243   4.734078038   5.754602393
H       -0.872199783   1.041727903  -0.320729981
H       -1.062772249  -0.504352335   5.042863884
H        0.798907422   5.119372357  -1.270693138
H        1.379421877   5.745901400   6.110782287
H        4.563235246   4.629247014  -0.298650822
H        5.912040673   4.526719921   6.736331290
H        5.610012293  -1.059499417   0.900061731
H        4.183009377  -0.175492558   5.734017035
H        1.141023589   4.490926820   0.379855487
H        0.033005176   6.630193950   6.910464346
H       -1.029545361  -0.732452098  -0.535994147
H       -1.004776746  -0.672069561   6.824878966
H        1.110993306   0.553758540   5.109711125
H        1.434545751   0.695673560   0.371072809
H       -0.295766129   4.483216853   4.866799822
H       -0.742260044   6.656878519  -0.368283335
H        7.123987455   0.177754296   6.083709915
H        6.266280756   1.339136023  -0.740728288
H        5.338399179   6.782441025   4.884232755
H        6.785113377   6.254408598   0.845486846
H       -1.528133694   5.246540964   5.708464357
H       -0.361326912   6.285694771   1.207305330
H        1.201439153   0.385917805   6.777396103
H        1.298123990  -0.959207802   0.189535395
H        6.746693937   6.605769413   5.749402145
H        6.683112822   4.595830299   0.912787300
H        6.362675610  -1.032670911   5.189270909
H        7.378635702   0.416178323   0.109143747
H        0.386932497  -0.167901700   1.346010506
H        0.041748051   1.381026813   6.109753749
H       -1.160905941   5.143923086   0.248869985
H       -0.448899516   4.271303144   6.536953345
H        6.225737198   1.300006581   0.942540894
H        6.164992150  -0.975628983   6.843797123
H        5.535053336   5.522490541   1.723487965
H        5.314937152   6.863651119   6.551737770
