CRYSTAL
PRIMVEC
11.2820 0 0
0 11.1747 0 
0 0 11.3552
PRIMCOORD
96 1
Pb       3.096443879   2.708916095   2.863873504
Pb       2.723981665   2.792153878   8.523400169
Pb       3.083116626   8.328986884   2.844479037
Pb       2.761138470   8.338707615   8.478594198
Pb       8.711402260   2.768097452   3.054693667
Pb       8.410870416   2.827246186   8.776554753
Pb       8.627070709   8.359020290   2.960805314
Pb       8.400667620   8.456262480   8.659371450
Cl       3.089383155   2.337306022   5.689261157
Cl       3.130594002   3.102276516  -0.024457557
Cl       2.697251180   9.104922529   5.623587227
Cl       3.087166402   7.870082391  -0.068007438
Cl       8.397071094   3.228810478   5.914822051
Cl       8.312178392   2.474538832   0.261180669
Cl       9.085793430   8.337182616   5.798360080
Cl       8.304030494   8.709792968   0.128104343
Cl       3.383976127  -0.070059162   2.281520012
Cl       2.574492827  -0.038343973   9.004563453
Cl       3.122118690   5.526681919   3.409792084
Cl       3.187705584   5.556944840   8.017516365
Cl       8.526128328  -0.035697564   3.263379710
Cl       8.360647154   0.045414928   8.328347847
Cl       9.115832854   5.567636897   2.801046911
Cl       8.169306017   5.642920151   9.202491289
Cl       5.898932934   2.874878208   3.066752032
Cl       5.595102875   2.792163562   8.442951742
Cl       5.844422306   8.332654273   3.037249111
Cl       5.605447722   8.442062043   8.315999675
Cl       0.266694743   2.088358541   2.844414054
Cl      -0.054451410   3.285185356   8.589696744
Cl       0.200832234   8.720282230   2.376851070
Cl      -0.033670819   7.854201282   8.743537514
C        6.355929097   5.979518653   5.704928872
C        6.007815933   5.584028692   0.663379118
C        6.003479926   0.002052873   5.527221822
C        5.500079008  -0.013625909  -0.439354743
C        0.478105889   5.444016994   5.462577389
C        0.465083996   5.217556865   0.411572279
C       -0.121006293   0.605558535   6.214748146
C       -0.388316937   0.077551603  -0.576509245
N       -0.439956132   6.380110250   0.178313957
N       -0.722787914   5.549776537   6.340139207
N        0.753525359   0.046086926   0.380873503
N       -0.018104372  -0.427821146   5.144444904
N        5.243216674   5.514855424  -0.615977897
N        5.345052543   4.885839201   5.701764744
N        6.271453790   0.018273094   0.835022631
N        5.165598169   0.038112891   6.759555179
H        6.999044613   5.861129683   4.825522621
H        5.295591904   5.560801191   1.495920889
H        7.055530257  -0.015361847   5.827379203
H        6.212417508  -0.003730199  -1.272442808
H        1.164804903   6.263843797   5.699912725
H        1.498558428   5.577491283   0.381342233
H        0.648009608   1.363136289   6.032285757
H       -0.305652069  -0.788316128  -1.242810934
H        4.851064011   0.867836351  -0.476273510
H        5.792265570   0.896710295   4.931219656
H        6.576969520   6.519737978   0.674538664
H        6.947349228   5.899363003   6.623876011
H       -0.331644349   1.004548181  -1.157884829
H        0.042191762   0.123748857   7.184923092
H        0.298545482   4.479436570  -0.380278783
H        0.148171331   5.511159801   4.420275094
H        6.680827924   4.721500607   0.714944153
H        5.833134586   6.940627520   5.669929427
H        4.896035349  -0.927374201  -0.459164096
H        5.753258642  -0.899930378   4.957698176
H        0.234147894   4.787170359   1.392379252
H        0.973748062   4.483793162   5.647194605
H       -1.324136632   0.038099926  -0.010535519
H       -1.120346060   1.051697363   6.178119801
H        0.899941413  -0.918765602   5.189757496
H        1.651329946   0.090170949  -0.125832374
H       -1.197393338   6.465051349   6.200613264
H       -0.280210594   6.806593005  -0.758939612
H        5.367506241   0.885818044   7.324354227
H        6.864555595   0.867727783   0.880297753
H        5.801821434   3.965240761   5.692067257
H        4.587560712   6.316312650  -0.682794652
H       -0.463528427   5.465988723   7.331828882
H       -0.277416085   7.119967239   0.888617491
H       -0.122926502   0.006113629   4.215088229
H        0.734042693  -0.821730321   0.950224899
H        4.727099212   4.955099226   4.870035370
H        4.670880808   4.650884042  -0.649856430
H        5.340300575  -0.802448031   7.345418932
H        6.899172048  -0.800676341   0.894062446
H        0.702814116   0.830879910   1.060581447
H       -0.758795308  -1.144001662   5.252984330
H       -1.427803918   6.106401880   0.238121435
H       -1.410354309   4.791704864   6.140016045
H        5.622065554   0.005889897   1.638866274
H        4.166017662   0.055713282   6.519270126
H        5.889996006   5.529295485  -1.420053408
H        4.730243437   4.945585058   6.536319467
