CRYSTAL
PRIMVEC
11.2820 0 0
0 11.1747 0 
0 0 11.3552
PRIMCOORD
96 1
Pb       2.720133640   2.722020920   2.756951537
Pb       2.987853848   2.852127844   8.535716891
Pb       2.779778945   8.344514769   2.886874115
Pb       3.022786447   8.394459944   8.655422197
Pb       8.305013837   2.867578384   3.040333067
Pb       8.646557864   2.942550589   8.706592016
Pb       8.475162558   8.466203756   3.124911045
Pb       8.649738078   8.549086622   8.788021757
Cl       2.399571201   2.831435567   5.638842609
Cl       3.123460424   2.223948302  -0.038594457
Cl       3.077527209   8.247196392   5.738872661
Cl       3.131926925   9.039904392   0.094113092
Cl       8.948279593   3.323031388   5.860870573
Cl       8.262752153   2.869523330   0.214519421
Cl       8.526206784   7.917389228   5.952255150
Cl       8.201546725   8.772953236   0.282833451
Cl       2.253918671  -0.047123330   3.251726560
Cl       3.023641139   0.030937103   8.124263107
Cl       3.245836433   5.525997801   3.159414399
Cl       3.090285037   5.613971311   9.016484355
Cl       9.001859020   0.116481257   3.390962808
Cl       8.919182352   0.171416824   8.255770677
Cl       7.836627634   5.707814059   2.709038338
Cl       8.949868992   5.755732486   9.258072071
Cl       5.493540178   2.038672480   3.053327586
Cl       5.821546747   2.968186292   8.475151631
Cl       5.600911468   8.918470730   3.180011409
Cl       5.840063288   7.994284056   8.578608918
Cl      -0.153111281   3.250757997   2.751560683
Cl       0.182877310   2.732736723   8.915691107
Cl      -0.046180406   7.644599304   3.005890829
Cl       0.195508900   8.491214191   9.172308538
C        5.532833497   5.184005327   6.034015901
C        5.171200230   5.463346839   0.504079255
C        6.169612961  -0.093579006   6.156389954
C        6.001739827   0.142489364  -0.804709026
C        0.336841582   5.916401747   6.628675155
C        0.751011048   5.567097948   0.130629308
C        0.114231725  -0.734809714   6.034634304
C       -0.257182269   0.092441726   0.546681553
N       -0.659827153   5.562776945   0.607523672
N        0.181517105   5.256962162   5.301157325
N        0.641562950   0.090516194  -0.643426255
N       -0.151558317   0.700076684   5.731876415
N        6.043677296   5.427992248  -0.703470134
N        5.722789943   6.445902492   5.269297731
N        5.713712543  -0.293243605   0.589477764
N        4.855698446  -0.032743026   5.454672188
H        4.703414504   4.624800574   5.584964492
H        4.129978875   5.504325405   0.172651532
H        6.196732418  -1.004423955   6.765682807
H        6.997304575   0.595315831  -0.830962506
H       -0.509273937   6.593563862   6.780191820
H        1.411934841   5.497488907   1.003733332
H        0.814418452  -1.120146786   5.287934891
H       -1.281849129  -0.101444186   0.211824893
H        5.244561347   0.869174187  -1.108181512
H        6.267557270   0.789353833   6.797503304
H        5.430299022   6.346369217   1.096824730
H        5.295457524   5.445322029   7.070256809
H       -0.196128876   1.068630812   1.040080820
H       -0.837851000  -1.274866776   5.991082854
H        0.930486323   6.497100555  -0.418739085
H        1.281141397   6.468674335   6.630073266
H        5.354902987   4.558341898   1.092577278
H        6.461140323   4.602995271   5.994007661
H        5.964041822  -0.743031496  -1.449560330
H        6.969145784  -0.113666345   5.406257104
H        0.896976849   4.709091893  -0.533925703
H        0.343868504   5.142820103   7.404553997
H        0.069804080  -0.692662197   1.236813251
H        0.546894657  -0.808139218   7.036352794
H       -0.658615146   0.774631501   4.830521434
H        0.406553955   0.870812127  -1.288644709
H        0.135283963   5.949513179   4.532198562
H       -0.807759191   6.335335902   1.277113871
H        4.078171716   0.023137100   6.138816575
H        5.676070360   0.496407046   1.256739580
H        4.882146737   7.052201884   5.342433050
H        5.929573198   6.276801090  -1.291332737
H       -0.683882460   4.681658774   5.288203463
H       -0.856091638   4.685141381   1.117669919
H        0.718913952   1.261822316   5.679664406
H        0.561098747  -0.806454569  -1.165599108
H        5.897652236   6.257892447   4.272851133
H        5.831544533   4.613042424  -1.311036892
H        4.723078381  -0.873270595   4.870196971
H        6.438662057  -0.962256541   0.898096595
H        1.625344071   0.221030510  -0.368719194
H       -0.760562139   1.110700249   6.454026280
H       -1.318090455   5.652387731  -0.192994117
H        0.970250003   4.612808338   5.121555223
H        4.806024986  -0.797866019   0.621854754
H        4.821809189   0.776494299   4.810057679
H        7.037683506   5.355910291  -0.448892552
H        6.542884546   6.976133085   5.625726042
