CRYSTAL
PRIMVEC
11.2820 0 0
0 11.1747 0 
0 0 11.3552
PRIMCOORD
96 1
Pb       2.878339772   2.662229985   2.855824778
Pb       2.777570687   2.838628595   8.456488377
Pb       2.999546833   8.320801795   3.012079845
Pb       2.952827844   8.449448644   8.573876123
Pb       8.520567437   2.742736920   2.966714307
Pb       8.401128279   2.919049182   8.655749869
Pb       8.652364465   8.345773855   3.101064055
Pb       8.529218360   8.382674580   8.661974353
Cl       2.754052890   3.305325308   5.649805126
Cl       2.816793359   2.904650745   0.008351764
Cl       2.478450796   8.651402534   5.801077010
Cl       3.053345636   8.175907368   0.134638030
Cl       8.493747729   2.275401207   5.832370706
Cl       7.897179788   3.071091041   0.167626512
Cl       8.986962204   8.919417321   5.897541558
Cl       8.474530155   8.515052980   0.226878467
Cl       2.393180418  -0.170159852   2.542398704
Cl       2.461386101   0.031073872   8.775717365
Cl       3.714161896   5.402085742   2.696970596
Cl       2.852299709   5.608177324   8.889730598
Cl       9.120704158  -0.045184939   2.678416033
Cl       8.432909339   0.074856450   8.892975253
Cl       8.154585665   5.508126058   3.669247719
Cl       8.353878329   5.635692804   7.804978367
Cl       5.730816201   2.115666388   3.144873071
Cl       5.617904234   3.102497278   8.427245541
Cl       5.844853560   9.136366845   3.155226574
Cl       5.764680390   8.798605594   8.218373612
Cl       0.087481629   3.470197012   2.793967561
Cl      -0.040413574   2.942219180   8.320662638
Cl       0.176685441   7.803737804   2.622731804
Cl       0.095116213   8.460400423   9.006959941
C        5.182948239   6.085329425   5.888324870
C        6.195199684   6.159896226  -0.234976007
C        4.975637433   0.308636537   6.159346961
C        5.376756232  -0.007372679  -0.264735493
C        0.335033799   6.053854184   5.986651542
C       -0.272655844   5.513160519  -0.325954270
C        0.353838168   0.464836451   5.478471893
C       -0.084935209   0.615956614  -0.010432526
N        1.029214772   5.601416491   0.392264882
N       -0.464820908   4.825908061   5.708419898
N        0.168545415  -0.818369452   0.302765007
N       -0.138597722  -0.072766386   6.777276291
N        5.142740520   5.109028588  -0.166019278
N        5.724974619   4.734788446   5.568818562
N        6.621969300   0.038453157   0.555312480
N        6.316496209  -0.203767279   5.761870008
H        5.240235196   6.701780643   4.984164844
H        6.716503775   6.066576158  -1.195647418
H        4.715481750   1.149340484   5.508600877
H        5.662740104  -0.044106185  -1.321513312
H        1.387084560   5.763420927   6.069571850
H       -0.072247345   5.416561698  -1.398097554
H        0.778968811   1.459804509   5.650324468
H        0.740844706   0.984681840  -0.626064046
H        4.781495111   0.888367860  -0.052758833
H        5.026487418   0.631973815   7.203534362
H        6.897710462   6.005411395   0.590153092
H        5.792952436   6.522627164   6.685275845
H       -0.133245287   1.170352618   0.933093157
H       -0.489384008   0.517870272   4.781494090
H       -0.842600792   6.427544771  -0.122640391
H       -0.014723240   6.495836225   6.926155802
H        5.712131803   7.138865466  -0.150099045
H        4.143369305   5.975373358   6.214312917
H        4.809519078  -0.905065326   0.006818269
H        4.247593685  -0.503575091   6.052212301
H       -0.812844244   4.634886549   0.048098124
H        0.198710867   6.759523565   5.160682759
H       -1.033307606   0.689454467  -0.553753597
H        1.119490661  -0.216267199   5.092842959
H       -0.826403661   0.559421757   7.208197706
H        1.030686411  -0.907924892   0.869631658
H       -0.342351610   4.132472704   6.471093655
H        1.588430450   6.423141486   0.092068215
H        7.029356223   0.549641271   5.750046110
H        7.151617461   0.909376597   0.370305411
H        6.668603120   4.826775206   5.146443352
H        5.558202652   4.173849160  -0.267131279
H       -0.182789287   4.386633264   4.809836427
H        1.603230138   4.748743353   0.237755296
H        0.639146871  -0.197074612   7.452940647
H        0.257578688  -1.394678401  -0.557669293
H        5.123862677   4.252345926   4.887482345
H        4.436590991   5.227602799  -0.918841728
H        6.272818199  -0.648258573   4.822831295
H        7.242757905  -0.771683599   0.360423773
H       -0.604127770  -1.211444331   0.857660760
H       -0.617977612  -0.979834945   6.631001444
H        0.869459186   5.703265633   1.404295057
H       -1.468343967   5.047624028   5.646984375
H        6.403188628   0.014488458   1.561453833
H        6.623422340  -0.929280750   6.428052004
H        4.642653148   5.148593901   0.748394737
H        5.778407400   4.149746238   6.423136716
