CRYSTAL
PRIMVEC
11.2820 0 0
0 11.1747 0 
0 0 11.3552
PRIMCOORD
96 1
Pb       3.001088902   2.761367708   2.833601250
Pb       2.876381343   2.787572544   8.440216153
Pb       2.882997030   8.368913250   2.905427668
Pb       2.804715972   8.268434139   8.628315183
Pb       8.566873393   2.816063209   2.962107906
Pb       8.502580057   2.686010084   8.594334578
Pb       8.530296858   8.447593890   3.059956050
Pb       8.530307034   8.293165159   8.792989038
Cl       2.918606430   1.936827630   5.627447310
Cl       2.685971285   3.340387736  -0.053817441
Cl       2.836413445   9.005640617   5.778436150
Cl       3.353931473   7.841357030   0.088638137
Cl       8.991880267   2.988812099   5.799163439
Cl       8.870020744   2.728276827   0.102921047
Cl       8.577529974   7.985581482   5.902032322
Cl       7.831574595   8.414120283   0.223799192
Cl       2.857892979  -0.036581722   2.099959067
Cl       2.955064529  -0.059573308   9.229302519
Cl       3.294241478   5.565128323   3.350272000
Cl       2.764484984   5.539957767   7.659258271
Cl       8.759480729   0.044180099   3.187974230
Cl       8.410164202  -0.114499161   8.411578902
Cl       8.500239602   5.631679276   2.802529058
Cl       8.635056401   5.480648311   8.799359276
Cl       5.768062551   2.839872830   2.685079974
Cl       5.669943613   2.639716656   8.524451254
Cl       5.689674199   8.483807056   3.220143428
Cl       5.693996303   8.353020580   8.406624783
Cl       0.142132764   2.725826358   2.728376045
Cl       0.064067124   2.726184503   8.662445139
Cl       0.081408499   8.523076492   3.030720516
Cl       0.073133522   7.810131237   9.011255283
C        6.125622105   5.217378466   5.709499343
C        5.774475438   5.112350878  -0.196875012
C        6.204493574   0.233519746   5.538300078
C        6.267241192   0.459504476   0.116232638
C        0.381840930   5.587307009   5.137753220
C        0.013660120   6.056438880   0.728364758
C       -0.313435035  -0.214080189   6.105988107
C       -0.392374793  -0.359171813  -0.006951054
N       -0.086177025   4.992774066  -0.310126070
N       -0.525774996   5.631388582   6.317286703
N        0.420646346   0.889860764  -0.006009828
N        0.402630619   0.058284234   4.826314347
N        5.768488837   5.849458330   1.098005016
N        5.341646282   6.482909622   5.791460507
N        5.308882311  -0.680251297   0.061510662
N        5.357213524  -0.040361977   6.734769568
H        7.183246999   5.471997262   5.591536186
H        6.627068192   5.459885307  -0.790450053
H        7.236426514   0.383346136   5.871257240
H        6.933695761   0.391606875  -0.750004144
H        1.052757245   4.728965515   5.242267632
H        0.864551374   6.700935769   0.481865414
H       -0.326190221   0.703717018   6.703630175
H       -0.126192456  -0.949441449  -0.891668512
H        6.844933842   0.384454496   1.044173030
H        5.823717734   1.133994364   5.042380646
H        4.830311334   5.315475851  -0.712424739
H        5.771940794   4.644303084   4.844332776
H       -1.451468283  -0.081650529  -0.033009122
H        0.222700410  -1.012337148   6.632121711
H        0.158383102   5.574770998   1.701018743
H        0.963684772   6.513859530   5.107962536
H        5.868982096   4.043162893   0.016128516
H        5.969419824   4.649340908   6.633877110
H        5.702583786   1.396860584   0.096397615
H        6.142033910  -0.622836175   4.858957419
H       -0.916937523   6.632808583   0.729235594
H       -0.233033107   5.490214988   4.236036943
H       -0.167838058  -0.922713413   0.906098499
H       -1.335165110  -0.529480875   5.874020016
H        1.367544913   0.387034158   5.012582228
H        0.236028203   1.466191972  -0.849835939
H        0.004303730   5.754606485   7.189588729
H        0.793574676   4.437331549  -0.348236187
H        5.402958961   0.759259308   7.396636276
H        5.825558867  -1.575953055   0.069566207
H        5.449594433   7.058185842   4.935047189
H        5.680632898   6.860966483   0.939135318
H       -1.083200439   4.755427594   6.374836307
H       -0.261571665   5.408293110  -1.235208147
H       -0.070253547   0.792948674   4.278250858
H        1.427427839   0.676133487   0.008202473
H        5.636771715   7.063975665   6.599153853
H        6.649314706   5.695530949   1.629866076
H        5.662206293  -0.892083112   7.240880954
H        4.710697002  -0.634808963  -0.783740859
H        0.217913814   1.474433253   0.827468995
H        0.429755520  -0.794707572   4.236067189
H       -0.868087693   4.332301682  -0.120352892
H       -1.204178552   6.418420790   6.241245351
H        4.653034929  -0.654855261   0.863304920
H        4.372820755  -0.180207754   6.464671097
H        4.979291555   5.567813260   1.705312549
H        4.338958605   6.280281790   5.920434914
