CRYSTAL
PRIMVEC
11.2820 0 0
0 11.1747 0 
0 0 11.3552
PRIMCOORD
96 1
Pb       2.859842694   2.724795681   2.857409746
Pb       2.911114584   2.860175104   8.592156208
Pb       2.863443168   8.336251813   2.953033445
Pb       2.943730821   8.585990117   8.625864556
Pb       8.521905801   2.650860003   2.800634982
Pb       8.532454186   2.897780489   8.569082517
Pb       8.503256412   8.221660946   2.942134816
Pb       8.435487007   8.543403299   8.650102594
Cl       3.093402165   2.276904760   5.700976869
Cl       3.114800661   3.238294324   0.046996175
Cl       3.152952161   9.157243230   5.691935121
Cl       2.347521923   8.069570927   0.061802131
Cl       8.152716156   2.394152427   5.669248216
Cl       8.737084082   3.329268151   0.007852546
Cl       8.103283444   8.820550338   5.722518243
Cl       9.021139242   7.999152072   0.066388560
Cl       2.488066010  -0.101556691   2.342011631
Cl       2.924511705   0.108682344   9.418970651
Cl       3.534388933   5.514147725   3.156413447
Cl       2.749490902   5.740704244   8.368361965
Cl       9.087695078  -0.197549614   2.511109140
Cl       8.987592342   0.121386350   8.955589727
Cl       8.078188047   5.409747258   3.380652896
Cl       8.692093396   5.752952437   8.146710475
Cl       5.650980113   2.086383078   2.913311230
Cl       5.688795619   3.221040648   8.571679778
Cl       5.651106439   8.680462217   2.376065207
Cl       5.657874953   8.434815499   9.497220728
Cl       0.036930673   2.744058326   3.225481465
Cl       0.075673392   3.249767295   8.599762812
Cl       0.043858210   8.085030202   3.719709712
Cl       0.065462726   8.493288257   8.525254999
C        5.666825765   5.822003299   6.106725868
C        6.147923809   5.280736397   0.126606647
C        5.791479801   0.028256827   6.855242639
C        6.362617129   0.461383791  -0.268908826
C        0.123970543   5.030312042   5.412773531
C        0.222916196   5.458576752   0.792456874
C       -0.261734528   0.202126905   6.154219071
C        0.085029981   0.845618016   0.095040614
N       -0.061518787   5.765331089  -0.638143966
N        0.089664564   6.119347893   6.427593706
N        0.031697057  -0.632937985  -0.082568897
N        0.446975409  -0.027711433   4.862666440
N        4.849060117   6.012355172   0.142730058
N        5.690599760   4.485362041   5.444221997
N        5.127400954   0.051195322   0.451322095
N        5.806530639  -0.207573898   5.385141478
H        4.763248390   6.350527040   5.781735253
H        6.603458036   5.396276660  -0.861900716
H        4.989285135   0.732529974   7.091243743
H        6.252257917   1.503594892  -0.589151085
H        1.017671688   5.156182869   4.791523218
H       -0.517380250   4.731973784   1.139315829
H       -1.339077807   0.217431443   5.962505105
H        0.989290997   1.222447642  -0.390419045
H        6.489307469  -0.190668861  -1.136696891
H        6.762544661   0.437072169   7.150495661
H        5.946645716   4.223990758   0.324600822
H        6.564843460   6.371315175   5.802323142
H        0.107462583   1.059336013   1.166162763
H        0.061003304   1.165817030   6.565280503
H        0.149423416   6.389110061   1.366028571
H       -0.776805150   5.103218055   4.793978348
H        6.797589076   5.699749866   0.901952197
H        5.657207625   5.668957023   7.190197483
H        7.218301574   0.354470600   0.408120441
H        5.617176905  -0.933196698   7.351628785
H        1.232744457   5.041231165   0.863627252
H        0.152607598   4.070465625   5.936716892
H       -0.809019738   1.279001322  -0.360063652
H       -0.013863836  -0.611031437   6.844593126
H        0.251812054   0.741667508   4.193430142
H        0.892541597  -1.090255352   0.255872412
H        0.083613238   7.038304442   5.961594163
H       -0.976022326   6.244190584  -0.715688907
H        5.913822139   0.665029114   4.843063797
H        4.303980188   0.071932064  -0.178764298
H        5.686016798   4.597380373   4.422147371
H        4.182211315   5.590689249  -0.517765042
H        0.908020752   6.071240709   7.062400416
H       -0.073537834   4.911257866  -1.230032397
H        0.162885470  -0.924626133   4.425636279
H       -0.085698923  -0.898033349  -1.073028882
H        4.872581981   3.906835887   5.699571344
H        4.979749437   7.000079730  -0.129277932
H        4.924162350  -0.672826742   5.109901567
H        4.960485660   0.685452064   1.249577906
H       -0.769961383  -1.031686941   0.430547866
H        1.465525530  -0.070946393   4.999867326
H        0.645506472   6.411979880  -1.016747386
H       -0.767019191   6.048023227   7.017993455
H        5.225507946  -0.899806352   0.853389479
H        6.593360989  -0.851498153   5.165423563
H        4.413271211   5.965909293   1.081476686
H        6.543057376   3.937006156   5.682421828
