CRYSTAL
PRIMVEC
11.2820 0 0
0 11.1747 0 
0 0 11.3552
PRIMCOORD
96 1
Pb       2.754332841   2.933832491   2.807471472
Pb       2.763141057   2.869778192   8.499714167
Pb       2.996083640   8.576114934   2.918811499
Pb       3.084837985   8.440077955   8.611535480
Pb       8.306431323   2.723916451   3.004099242
Pb       8.358430545   2.533474328   8.688297254
Pb       8.634430508   8.281047579   3.026972116
Pb       8.665623361   8.219211166   8.748343731
Cl       2.517541555   2.684754375   5.687256264
Cl       2.261085060   3.065262166   0.009085927
Cl       3.347270776   8.756216761   5.765342280
Cl       2.960262766   8.302503232   0.088054030
Cl       8.276789195   3.141504890   5.861927440
Cl       8.326448591   2.264838596   0.171908953
Cl       8.196197166   7.831273001   5.862458193
Cl       8.787249760   8.573533357   0.187181895
Cl       2.912003583   0.165797019   2.205773168
Cl       3.302626199   0.107053829   8.965227284
Cl       3.153042186   5.742117518   2.853925255
Cl       2.887015928   5.666883300   7.961676274
Cl       8.639218422  -0.067300348   3.636218658
Cl       8.260961443  -0.222452668   7.949175363
Cl       8.290429160   5.511721712   2.323639149
Cl       8.843446771   5.341104052   9.020456630
Cl       5.546825066   2.745885410   2.675993798
Cl       5.573005777   2.921264738   8.617289410
Cl       5.817632658   8.630883673   2.836478117
Cl       5.858875053   7.848865103   9.004345626
Cl      -0.106044944   3.209480934   3.217957916
Cl      -0.058876987   2.165195872   8.719040919
Cl       0.185025654   8.037479827   3.349500331
Cl       0.229031268   8.712652103   8.728933932
C        5.309344889   5.449351239   5.351608602
C        5.507241617   5.108372731  -0.293911963
C        5.302019980   0.555627412   5.643948542
C        6.116792287  -0.480026690  -0.086142277
C       -0.231334567   5.575155550   6.411229651
C        0.378609600   6.051771398   0.109174351
C        0.458697300  -0.251187378   5.659976938
C       -0.213223541  -0.026616718   0.804365982
N       -0.516658022   4.857281209   0.171805343
N        0.839335591   5.627930181   5.373525632
N        0.718733247  -0.169458540  -0.351111615
N       -0.393273407   0.970106629   5.751400552
N        5.591660667   6.242180035   0.667258619
N        6.157907292   5.519665579   6.573803072
N        5.318993466   0.774173298   0.025735886
N        6.080770631  -0.714886408   5.649032588
H        5.963889063   5.329197194   4.480984112
H        6.376501544   5.150162616  -0.957383543
H        4.691970702   0.588162786   4.734729243
H        6.755781994  -0.408667474  -0.972975449
H       -1.207917853   5.591462752   5.917295670
H        0.962013187   5.999196301  -0.816491901
H        0.297129094  -0.720355603   4.683394400
H       -1.238291140   0.035797919   0.427622722
H        5.421660976  -1.320822991  -0.183313582
H        6.003374048   1.397840486   5.663546166
H        4.583748491   5.208057653  -0.874047297
H        4.738202501   6.379913572   5.272161044
H        0.052868579   0.884945279   1.351408797
H        0.165732263  -0.940043989   6.460797767
H        1.049642839   6.037590575   0.974326858
H       -0.118180219   6.443367857   7.069882349
H        5.504855460   4.176590476   0.281324369
H        4.631421304   4.592950819   5.439689115
H        6.726720699  -0.593030923   0.814357158
H        4.661730140   0.572636285   6.532254892
H       -0.244820592   6.952709775   0.116505756
H       -0.114896370   4.651688378   6.989422534
H       -0.101054458  -0.903321924   1.452162443
H        1.505571962   0.045743812   5.780051302
H       -1.380372169   0.738195764   5.565148380
H        0.661752362   0.648601000  -0.981646428
H        0.737978312   6.471299224   4.770300461
H        0.053351978   3.996653627   0.175883252
H        6.684000940  -0.782641848   4.814988366
H        4.740634085   0.894430228  -0.825652597
H        6.813181791   6.327447138   6.499769347
H        5.561882532   7.141544995   0.168904582
H        0.781929719   4.802684595   4.754809545
H       -1.157674029   4.848372022  -0.648710239
H       -0.111512183   1.683261537   5.057416108
H        0.506942457  -1.006866475  -0.931336210
H        6.731596476   4.664342672   6.660246419
H        6.471805917   6.187660623   1.213855030
H        5.433598477  -1.523362218   5.656395073
H        5.946556310   1.583271749   0.143004132
H        1.691520577  -0.251218164  -0.023232715
H       -0.320194603   1.396065115   6.697097426
H       -1.110105140   4.880212048   1.017029298
H        1.764942723   5.634508366   5.830734406
H        4.676572886   0.729965925   0.837298207
H        6.711763990  -0.756793843   6.472775262
H        4.803322259   6.218621065   1.339419285
H        5.585885278   5.631672098   7.420732118
