CRYSTAL
PRIMVEC
11.2820 0 0
0 11.1747 0 
0 0 11.3552
PRIMCOORD
96 1
Pb       2.761422917   2.839596536   2.847423610
Pb       3.002411862   2.852933493   8.507396200
Pb       2.795788397   8.470345508   2.972857716
Pb       3.000927842   8.291360892   8.686275091
Pb       8.502357759   2.832147963   3.002357274
Pb       8.656371578   2.818224444   8.747623854
Pb       8.527523636   8.469897888   3.051251230
Pb       8.630091448   8.380748299   8.814612224
Cl       3.064899060   3.334432871   5.640058143
Cl       2.933450278   2.131560449  -0.040307896
Cl       3.130938256   7.885015320   5.789265023
Cl       2.868599392   9.134238503   0.108400956
Cl       8.619587544   2.783466818   5.890559607
Cl       8.449807533   2.967147324   0.206068244
Cl       8.401207721   8.385610779   5.930901140
Cl       8.920317977   8.258502015   0.267844203
Cl       2.744472480   0.069995391   3.796350288
Cl       3.078763731  -0.010326961   8.146271564
Cl       3.148164367   5.663694299   2.229596653
Cl       2.983788176   5.564652086   9.530901670
Cl       9.198602409   0.073455009   3.232587045
Cl       8.601722729   0.014783320   9.031726210
Cl       7.984194005   5.652013268   3.217197685
Cl       8.621232033   5.602046057   8.569746031
Cl       5.590882369   2.808850680   2.889720484
Cl       5.824930011   2.760012127   8.845347438
Cl       5.606946192   8.579631139   3.151077700
Cl       5.798657481   8.598041682   8.718898623
Cl      -0.019084718   3.396744257   3.302018229
Cl       0.205279420   2.530213496   8.360901900
Cl      -0.012684540   7.748898650   3.256198490
Cl       0.191383795   8.364961803   8.912071077
C        5.914852713   5.500571792   6.354152041
C        6.208885923   5.927854055   0.130575614
C        6.230800126   0.330064696   5.782086339
C        6.245773010  -0.105881576   0.501387368
C        0.188684092   5.693749771   6.356093868
C       -0.224822459   5.262989383   0.006782638
C       -0.116411652  -0.488383918   6.215495819
C       -0.227203744   0.221059955   0.403022791
N        0.538233994   6.514096945   0.285404036
N       -1.093292457   5.629651808   5.602442285
N        0.497498587   0.058112513  -0.889454889
N        0.147085554   0.796516038   5.509726121
N        5.484688566   4.625114792   0.170760966
N        5.291006786   5.590379257   5.004726449
N        5.463352080   0.046935427  -0.757487050
N        5.368648093  -0.884020591   5.864476608
H        5.118159421   5.475195511   7.106697163
H        7.280593562   5.733751722   0.229503292
H        5.878866878   0.951585329   4.950227856
H        5.885241294  -0.997484294   1.026008179
H        0.808308628   4.839014827   6.061692826
H        0.211367399   4.780275902  -0.875530288
H       -0.189136400  -1.286542423   5.468025163
H       -1.302535417   0.191976181   0.205332109
H        6.090364127   0.785292834   1.120471980
H        7.265090785   0.012074654   5.612298681
H        5.855379027   6.545685896   0.963965094
H        6.554481142   6.376809810   6.504681726
H        0.054438986   1.184652056   0.842487727
H       -1.060769873  -0.399823784   6.763938685
H       -1.268977235   5.530520112  -0.181986583
H       -0.037924310   5.662014858   7.426732365
H        5.992544631   6.413989283  -0.827371653
H        6.513936783   4.584924956   6.403669312
H        7.303519696  -0.212293769   0.237619785
H        6.152960245   0.883506951   6.724537425
H       -0.150658461   4.608621538   0.882479110
H        0.698826591   6.627255216   6.095070352
H        0.057719656  -0.599174561   1.070272021
H        0.712920202  -0.678505332   6.904471486
H       -0.594600571   0.975471962   4.812429893
H        0.264050798   0.814894168  -1.559629986
H       -1.617444705   4.755316001   5.803877030
H        0.448961182   7.181796955  -0.500640017
H        5.439025953  -1.457901860   4.998674391
H        4.458524592   0.152981597  -0.557365050
H        4.695758740   6.434013505   4.946800544
H        5.638852024   4.121436231   1.065752391
H       -0.916558042   5.650404409   4.589489391
H        1.538328376   6.308408645   0.431029163
H        1.052017184   0.740194332   5.000123197
H        0.276562263  -0.848969903  -1.340037242
H        4.679855432   4.771812374   4.846588579
H        5.784774426   4.004474516  -0.601172647
H        4.379222375  -0.631094057   5.992165479
H        5.580448569  -0.779083544  -1.374716265
H        1.515900170   0.088554031  -0.739231549
H        0.172716506   1.581286135   6.178915421
H        0.188415872   6.974555194   1.147645030
H       -1.709404355   6.434978402   5.822725392
H        5.752624061   0.885472468  -1.294567038
H        5.635435650  -1.481144988   6.665684370
H        4.471411275   4.777816317   0.067080985
H        6.020783386   5.627602011   4.267088809
