CRYSTAL
PRIMVEC
11.2820 0 0
0 11.1747 0 
0 0 11.3552
PRIMCOORD
96 1
Pb       2.857752257   2.970002194   3.172194281
Pb       2.913959273   2.841733333   8.832593428
Pb       2.963259593   8.489514839   2.953446263
Pb       2.887047272   8.416363002   8.605581700
Pb       8.468572481   2.746399749   2.959504511
Pb       8.533246386   2.744682955   8.639404163
Pb       8.649143560   8.383944816   2.669754508
Pb       8.568007964   8.313048758   8.410142607
Cl       2.734376046   2.280050577   6.010192281
Cl       2.875862024   3.582422069   0.344762754
Cl       2.768774347   9.168282837   5.764007827
Cl       3.367963620   7.955680544   0.095390487
Cl       9.084451685   2.645442560   5.839750599
Cl       8.506782575   2.563035037   0.168871807
Cl       8.951086604   8.344412910   5.511100712
Cl       8.147370766   8.167996677  -0.151202230
Cl       2.411279529   0.159931360   2.585703580
Cl       3.223975048   0.010838980   9.317226592
Cl       3.343233464   5.754738754   3.682163183
Cl       2.795997611   5.610033408   8.367018329
Cl       9.283178378  -0.008428771   2.843629528
Cl       7.853986176  -0.038314523   8.678467730
Cl       8.303545171   5.563581379   2.667222193
Cl       8.653558518   5.541652408   8.182545850
Cl       5.640312591   2.733160031   3.013302779
Cl       5.720329010   2.968957374   8.100343930
Cl       5.812310188   8.707694886   2.783114219
Cl       5.702798059   8.278500026   8.065294910
Cl       0.020428517   3.208529885   2.992345777
Cl       0.124209457   2.405187099   8.955593753
Cl       0.204869799   7.706971386   2.648671328
Cl       0.098257235   8.198784010   8.957467464
C        6.356222685   5.680753341   5.311375524
C        5.894801350   5.234984462  -0.448037946
C        6.287132579   0.008357589   5.437158599
C        5.776882461   0.354308581   0.709380003
C        0.432136426   5.616305447   6.044146184
C       -0.582897505   5.250632997  -0.125227364
C       -0.102938649  -0.235455736   6.543711375
C       -0.112783921  -0.441522050  -0.135740157
N        0.686560804   6.026228368  -0.043971977
N       -0.797732097   5.537839268   5.206781298
N        0.157524693   0.911201880   0.424308826
N        0.178373608   0.355168530   5.203706052
N        5.563208413   5.655579458   0.944536913
N        5.265244067   5.625320435   6.321807746
N        5.752323323  -0.769632145  -0.267236043
N        5.212514771   0.059171667   6.469940959
H        7.313627415   5.664022933   5.841312477
H        6.660111869   5.913377907  -0.840890162
H        6.991009151   0.826047240   5.631072475
H        5.761136529   1.299022440   0.156561267
H        0.129667205   5.780798790   7.083291296
H       -0.567583095   4.657758284  -1.044568680
H       -1.100631010   0.089594782   6.859336731
H        0.696709268  -0.692483076  -0.827549521
H        6.696695800   0.286628950   1.299332232
H        5.830264139   0.119564100   4.448141331
H        4.982412659   5.290685909  -1.051926281
H        6.252734336   6.605140070   4.732883553
H       -1.071683152  -0.416872801  -0.666173168
H        0.653364789   0.130065807   7.246202339
H       -1.422074391   5.954903234  -0.137748637
H        1.047769954   6.449862481   5.687915184
H        6.277067480   4.209214217  -0.416021096
H        6.256988027   4.815550969   4.648564804
H        4.899526468   0.274266717   1.359061782
H        6.798181671  -0.958016389   5.515059590
H       -0.648106957   4.597084118   0.749677564
H        0.984718861   4.674177778   5.952318295
H       -0.150337301  -1.162662411   0.688700151
H       -0.059673724  -1.324668006   6.457893606
H        0.162708050   1.383021532   5.245661785
H        0.258436253   1.596371912  -0.350212748
H       -1.367019468   6.403941465   5.309337534
H        0.763153513   6.669239769  -0.850829180
H        4.689013707   0.950267806   6.434917589
H        6.548466201  -0.706969616  -0.928312297
H        5.310800980   6.447075560   6.957038504
H        5.121914901   6.590085798   0.942966328
H       -1.370390807   4.718889144   5.487620500
H        1.508815541   5.396842448  -0.024296248
H       -0.532750059   0.078944126   4.496024442
H        1.011206625   0.891603115   1.012154099
H        5.336998916   4.768801004   6.907333589
H        6.412889390   5.680802365   1.543812210
H        5.623599533  -0.036012186   7.409343809
H        4.878271544  -0.726110784  -0.826849580
H       -0.621470667   1.219880625   1.020404701
H        1.107051090   0.071357585   4.858152773
H        0.694358856   6.605071705   0.819342716
H       -0.566159812   5.423025585   4.211245801
H        5.798308896  -1.676609824   0.215874868
H        4.520649289  -0.702913651   6.329196679
H        4.891355626   5.002613673   1.370425702
H        4.350039747   5.627845456   5.846568829
