CRYSTAL
PRIMVEC
11.2820 0 0
0 11.1747 0 
0 0 11.3552
PRIMCOORD
96 1
Pb       2.733737037   2.809249104   2.855479853
Pb       2.653367868   2.936421132   8.589650948
Pb       3.041956582   8.341546145   2.980621311
Pb       3.112188024   8.524982115   8.704121341
Pb       8.303619165   2.727127950   2.944782962
Pb       8.277630492   2.790314978   8.601396858
Pb       8.754697172   8.305134197   2.987820600
Pb       8.787359501   8.328251361   8.658455649
Cl       2.485908272   3.178655273   5.699225391
Cl       2.654518316   2.468981095   0.037476664
Cl       3.354958092   8.472072724   5.830272803
Cl       3.134579603   8.270574782   0.168919000
Cl       8.526884671   3.325498758   5.768278377
Cl       8.096796229   2.516627871   0.117045134
Cl       8.846038084   8.659168219   5.814929905
Cl       8.940582547   8.185630171   0.154779996
Cl       2.329555181   0.014942339   3.365383371
Cl       2.481414785   0.161869860   8.115780552
Cl       3.722287222   5.585599991   2.999090646
Cl       3.461864293   5.736720052   8.501929134
Cl       9.179644895  -0.074993804   2.660446278
Cl       8.907281972  -0.052387242   9.028326679
Cl       8.069188651   5.499652838   2.533591841
Cl       8.096789772   5.521215841   9.135175811
Cl       5.483190772   2.210569585   3.323991873
Cl       5.443132647   2.491126034   8.047079910
Cl       5.919387010   8.862503855   2.698246334
Cl       5.978433281   8.763944566   9.090710940
Cl      -0.155887780   3.246915159   2.561544199
Cl      -0.210753487   3.197985868   9.025093530
Cl       0.262550264   7.604540537   3.265962981
Cl       0.319771698   8.339323787   8.585159683
C        6.303547903   6.175324191   5.825061543
C        5.330106459   5.019644042   0.017060383
C        6.288970572  -0.218628841   5.896903046
C        5.252942306   0.337754695   0.002502875
C        0.118734276   5.943253835   6.413342436
C        0.681983201   5.798432917   0.001793336
C       -0.340783503   0.579705263   5.919706410
C        0.621925471  -0.497146194   0.026991168
N       -0.717567196   5.301090607   0.134328352
N       -0.053165228   5.042096789   5.240913052
N       -0.281078855   0.689416751   0.069827293
N        0.320753669  -0.750596691   5.786921970
N        5.922997209   6.380562076   0.168089368
N        5.223364704   5.145503566   5.845849660
N        6.549734201  -0.376938579   0.177434770
N        4.864352024   0.189555947   5.747065453
H        6.968235018   5.963578566   4.980792747
H        5.676704714   4.600113403  -0.932715910
H        6.909050130   0.685691662   5.900267478
H        5.272452690   0.873808726  -0.953287806
H       -0.635719821   6.733344026   6.355019620
H        1.351949478   4.931370558  -0.033614679
H       -0.967595718   0.737739264   5.035905723
H        1.293698302  -0.451172076   0.890106235
H        5.133558400   1.043867542   0.829973774
H        6.554481051  -0.862659494   5.052454936
H        4.241237657   5.117859902   0.021176622
H        6.854800988   6.115876815   6.770172499
H        1.191776699  -0.460479909  -0.906890302
H        0.440658408   1.345175351   5.982437293
H        0.909032344   6.426313094   0.868843388
H        1.120217810   6.385681061   6.374332262
H        5.666479028   4.407142670   0.859978776
H        5.832788183   7.158179909   5.712411693
H        4.446026088  -0.404258533   0.012018968
H        6.402462257  -0.761662043   6.841726919
H        0.760665161   6.386520127  -0.918776098
H       -0.001685188   5.356038662   7.330614836
H        0.005252697  -1.402030802   0.059625204
H       -0.947807013   0.572133985   6.831363032
H        0.930584381  -0.755200360   4.947560057
H        0.263910633   1.562390168   0.029848740
H       -0.013505113   5.591276693   4.365073544
H       -0.810336215   4.726468999   0.991945606
H        4.744663749   0.730377610   4.872175007
H        7.329261174   0.301510971   0.199422901
H        5.607201829   4.199996853   5.973247168
H        5.674399015   7.000572031  -0.621194045
H       -0.956267033   4.531366031   5.286925899
H       -0.960184357   4.706427865  -0.675270656
H       -0.389126870  -1.502155189   5.716605604
H       -0.845003205   0.680707284   0.940042807
H        4.677614140   5.167289780   4.960679557
H        6.950787053   6.333660875   0.205256777
H        4.578531986   0.791226143   6.535379571
H        6.696234316  -1.033488994  -0.609609477
H       -0.940576751   0.670779020  -0.730525968
H        0.916593836  -0.932723849   6.609892009
H       -1.387980255   6.088527421   0.180170396
H        0.709780063   4.336669105   5.224554686
H        6.540393373  -0.928957753   1.056129742
H        4.241112393  -0.640572646   5.725439417
H        5.603308177   6.834646905   1.036403551
H        4.569557235   5.316627595   6.638020559
