CRYSTAL
PRIMVEC
11.2820 0 0
0 11.1747 0 
0 0 11.3552
PRIMCOORD
96 1
Pb       2.914359050   2.724499027   2.923068900
Pb       2.867277075   2.728976671   8.614746977
Pb       2.884980568   8.364349369   2.990294380
Pb       2.837428275   8.427172637   8.750632589
Pb       8.586251845   2.906904672   2.946268287
Pb       8.588183596   2.896577074   8.547668752
Pb       8.470045781   8.487725669   2.991634177
Pb       8.485950201   8.466109236   8.681030468
Cl       3.243002225   3.358139589   5.778759358
Cl       2.533841949   2.353565565   0.092860723
Cl       2.931265185   8.063005508   5.864818650
Cl       2.170576351   8.692210193   0.216334193
Cl       7.962232102   3.205012610   5.786560162
Cl       8.794806115   2.532796831   0.091728240
Cl       8.418826952   8.499154575   5.841426705
Cl       8.577797001   9.072650198   0.163404929
Cl       2.269654863  -0.063292347   3.331577778
Cl       2.843473891  -0.026069980   7.788302886
Cl       3.074760811   5.518410130   2.466182564
Cl       3.133417959   5.595679986   8.822157229
Cl       9.003878870   0.092115950   3.060320280
Cl       8.088073692   0.086353205   8.327426054
Cl       8.473980201   5.689703166   2.201423851
Cl       8.105493495   5.655645163   9.006587548
Cl       5.771113256   2.515653517   2.321221956
Cl       5.717846937   2.772497428   9.040766113
Cl       5.679888571   8.913896296   3.134409994
Cl       5.675624920   8.359940077   8.398113379
Cl       0.130688130   3.183094421   2.887886648
Cl       0.107827635   3.178123166   8.241380737
Cl       0.044459511   8.107471927   3.304974426
Cl       0.057151818   8.077425915   8.277307407
C        5.772876785   6.010739864   5.402748247
C        5.529639836   6.300363827   0.141054070
C        5.655217029   0.546095206   5.118605919
C        5.131286934  -0.427107265  -0.098790676
C       -0.457844388   5.499285756   5.600656257
C        0.101844893   5.202616952  -0.351607143
C       -0.349134296   0.346430107   5.928600192
C       -0.028184539  -0.000638316  -0.713876422
N        0.203375071   5.993263718   0.908229651
N        0.908195361   5.579846210   6.188569885
N        0.055796725   0.271598376   0.749015732
N        0.295069660  -0.988489621   5.785807679
N        6.051731794   4.904866004   0.136396261
N        5.692499480   5.387522723   6.754018884
N        6.412723488   0.326164533   0.004556843
N        5.691138177  -0.522822903   6.157245767
H        6.713357553   5.694496427   4.937629080
H        5.970915861   6.833100691  -0.707778433
H        6.601846673   0.527600133   4.568896578
H        5.193584024  -1.088342777  -0.970731371
H       -0.371268722   5.511861590   4.510385562
H        1.069820811   5.231173751  -0.861518901
H       -0.084463418   0.951390486   5.053798868
H        0.907906350   0.331048900  -1.175881317
H        4.309449276   0.290805589  -0.205563594
H        5.519142139   1.512704992   5.613670807
H        5.816146296   6.774332347   1.086938265
H        5.747638463   7.097158176   5.518545046
H       -0.880216689   0.556732412  -1.116020302
H        0.028398194   0.817279128   6.842768719
H       -0.676955570   5.643619484  -0.984055111
H       -1.036298984   6.365165666   5.943289548
H        4.439856688   6.265396418   0.047829458
H        4.915335052   5.667226004   4.812614495
H        5.005809686  -1.015835118   0.816446641
H        4.822898869   0.335375864   4.438904977
H       -0.163624140   4.173341259  -0.091348400
H       -0.923790877   4.567281019   5.935679853
H       -0.167380174  -1.075722419  -0.859449615
H       -1.433529505   0.207021571   5.982521412
H        1.319659695  -0.896168868   5.765462701
H        0.259463277   1.266335293   0.928501167
H        1.403350160   6.458259267   5.938243024
H        0.474178463   6.971475658   0.722349243
H        6.462030314  -0.369274323   6.836977641
H        6.588206409   0.877377940  -0.847652836
H        6.473585312   5.681771230   7.368187478
H        7.077215311   4.905314286   0.238028276
H        1.518038355   4.788246675   5.901405739
H        0.936283064   5.607456822   1.530986099
H        0.021160108  -1.472871073   4.910933149
H        0.816788398  -0.269852859   1.187686011
H        5.740125705   4.362952519   6.680451661
H        5.831894835   4.398795389  -0.742891066
H        5.842739890  -1.443993728   5.725887306
H        7.214257871  -0.323229453   0.132111316
H       -0.825337353   0.045174244   1.247481377
H        0.065987655  -1.621863407   6.575311731
H       -0.696574340   5.983454788   1.424261172
H        0.864054089   5.547685247   7.214944222
H        6.382517818   0.996091813   0.796718654
H        4.803372840  -0.550700871   6.690834202
H        5.683508598   4.336250542   0.920493094
H        4.810745530   5.623126777   7.244696890
