CRYSTAL
PRIMVEC
11.2820 0 0
0 11.1747 0 
0 0 11.3552
PRIMCOORD
96 1
Pb       2.742702350   2.739315226   2.885028068
Pb       2.557827817   2.832231250   8.658221662
Pb       3.135074695   8.318340928   2.969052416
Pb       3.017584382   8.436960813   8.659517464
Pb       8.296582805   2.861142335   2.910494520
Pb       8.264265425   2.843227968   8.645118334
Pb       8.844434137   8.424094266   2.963696032
Pb       8.659538135   8.475671137   8.607800396
Cl       2.311316528   2.996610753   5.758710065
Cl       3.103400978   3.004478261   0.073637109
Cl       3.369269553   8.070005462   5.839691227
Cl       2.673111775   8.046766259   0.138345463
Cl       8.532687062   2.716431268   5.753793726
Cl       7.911995242   2.376121594   0.071987976
Cl       8.320316951   8.587712980   5.759452821
Cl       9.283040986   8.800815151   0.072255265
Cl       2.890780663  -0.054820979   3.281605635
Cl       2.911622562   0.062033627   8.458707599
Cl       3.068006122   5.521683801   3.064452567
Cl       2.522661736   5.655581351   8.594720536
Cl       8.628045983   0.061848474   2.846493520
Cl       8.033770763   0.032617516   8.567745862
Cl       8.691760973   5.634022068   3.104163286
Cl       8.552905205   5.649210903   9.150019839
Cl       5.507432430   2.718128938   3.570179411
Cl       5.408119955   3.328169952   8.440817721
Cl       5.984604664   8.703452255   2.688216290
Cl       5.848013673   8.288001678   9.304652781
Cl      -0.130402655   2.742876653   2.670804425
Cl      -0.232299393   2.649289389   9.201526361
Cl       0.342315030   8.272794488   3.676929124
Cl       0.202285961   8.665597158   8.317663676
C        6.192022869   5.929679495   5.788345941
C        5.992886904   5.387321989   0.693754855
C        5.316587349   0.135650109   6.155890071
C        5.052047816   0.124116523   0.141053394
C       -0.515189879   5.599374374   6.240182462
C        0.185771234   5.368665771   0.482632908
C       -0.257080416   0.321685748   5.890169914
C        0.801437096  -0.126561461   0.198189306
N        0.051914906   6.210245304  -0.739335311
N        0.195652673   5.305796866   4.962897755
N       -0.526319542   0.545228082   0.264742139
N        1.011203245  -0.463230816   5.859965110
N        5.110800150   5.575304944  -0.494796144
N        4.929466977   5.137875302   5.828249107
N        6.402350501  -0.501718705   0.170184176
N        6.556854218   0.075717696   5.332123241
H        7.039134423   5.234151150   5.763903423
H        7.020961161   5.261914752   0.337079283
H        4.746617055   1.024551408   5.863494117
H        4.964087514   0.733554671  -0.764054186
H       -1.416202776   6.179150145   6.008813240
H       -0.695574875   5.522077987   1.116247357
H       -0.832133139   0.099603055   4.984046854
H        0.830712984  -0.748998331  -0.702776804
H        4.942871579   0.757228681   1.027956770
H        5.607805179   0.193319355   7.208901817
H        5.661124455   4.495791390   1.237921958
H        6.233189964   6.562978955   6.681178551
H        0.926984675  -0.747627906   1.091159142
H       -0.003217413   1.385809905   5.919857357
H        1.097641017   5.662510739   1.015181218
H        0.154848818   6.178060660   6.885998513
H        5.914375444   6.275170991   1.331827094
H        6.189606206   6.557325839   4.890975525
H        4.297266479  -0.671861845   0.143527250
H        4.731225809  -0.771493474   5.969545426
H        0.249063709   4.320781084   0.173042182
H       -0.784748756   4.649729183   6.714153314
H        1.581090580   0.643632304   0.156334780
H       -0.825673320   0.037333569   6.783061481
H        1.584846399  -0.234971666   5.022161331
H       -1.277195396  -0.165584520   0.274665525
H        0.492974994   6.187477668   4.501981392
H        0.004416375   7.210728025  -0.507227499
H        7.159347507   0.906188519   5.492889732
H        7.129645444   0.236138663   0.153344257
H        4.898633264   4.554413404   6.687099123
H        5.172491274   4.773680195  -1.150211034
H       -0.421901009   4.816917574   4.298598411
H       -0.820309177   5.969648632  -1.256656549
H        0.821268316  -1.473340277   5.827075701
H       -0.654471327   1.176233897  -0.549824185
H        4.865543612   4.499544952   5.017644819
H        5.380157961   6.435390029  -1.017001160
H        6.342184117   0.046521726   4.328809242
H        6.529891850  -1.120948523  -0.645876807
H       -0.604409907   1.127947385   1.117888005
H        1.586891529  -0.277371707   6.703784101
H        0.858062551   6.072862706  -1.379090188
H        1.020687564   4.697499128   5.133525226
H        6.509480390  -1.080687972   1.024893114
H        7.122488161  -0.771423081   5.549267238
H        4.125749679   5.674353483  -0.219448507
H        4.114815060   5.771747800   5.813664758
