CRYSTAL
PRIMVEC
11.2820 0 0
0 11.1747 0 
0 0 11.3552
PRIMCOORD
96 1
Pb       3.036235226   2.873493166   3.000342729
Pb       3.097400643   2.923930494   8.668274478
Pb       2.763524142   8.447716678   2.912823056
Pb       2.742462114   8.441367243   8.549311878
Pb       8.620824674   2.874908591   3.013018547
Pb       8.832103062   2.734031323   8.702896214
Pb       8.292773075   8.393259724   2.955045402
Pb       8.387672708   8.283070709   8.597002469
Cl       3.578938296   2.748983409   5.839089652
Cl       3.287756400   2.705363281   0.176821668
Cl       2.481429491   8.324893424   5.713375873
Cl       2.403916034   8.362124163   0.059520437
Cl       8.527752423   2.130141640   5.876020007
Cl       8.611298740   3.185475702   0.203451835
Cl       8.756916228   8.756977312   5.756983623
Cl       8.305588034   7.613212140   0.116203870
Cl       3.173859668   0.071385036   2.789815675
Cl       3.358370854   0.080078449   8.806375949
Cl       2.249055221   5.638824476   3.022976881
Cl       2.589200993   5.660110044   8.212715151
Cl       8.062522982   0.118603774   2.553824659
Cl       8.007173037  -0.041285757   9.101329855
Cl       9.133074508   5.710023287   3.366700833
Cl       8.997022711   5.524812724   8.198220212
Cl       5.835237600   3.520118078   2.810007010
Cl       5.973024545   3.107093408   8.895152867
Cl       5.525992966   7.733509876   3.180752636
Cl       5.550268189   8.076083047   8.088071468
Cl       0.193549219   2.321953339   2.694891648
Cl       0.353194047   2.311535738   8.945860926
Cl      -0.106415219   8.772389551   2.811870910
Cl      -0.092654679   8.577794557   8.684457442
C        6.346396739   5.473268562   5.934832168
C        4.913851550   6.043743891  -0.109468605
C        5.725295073  -0.379336885   5.504418472
C        5.619777308  -0.797089496   0.235209104
C        0.089082207   4.765293364   5.779618719
C        0.240181131   5.208410312  -0.324979344
C        0.503648898   0.123341183   6.015512211
C       -0.502395745  -0.009176141   0.023626626
N       -0.045196080   6.125906230   0.814265193
N       -0.063580365   6.241552903   5.922930785
N        0.980697721   0.145350387   0.081126184
N       -0.427150608   0.041108344   4.855389742
N        6.129448092   5.199067092   0.052860409
N        4.908606686   5.757144315   5.656931323
N        5.929918862   0.660872663   0.167663413
N        5.820280566   0.401245653   6.769677278
H        6.900502764   6.417155174   5.894377086
H        4.968963621   6.550669153  -1.079611170
H        6.603157236  -0.154383993   4.888813835
H        6.550156805  -1.353263761   0.074692089
H        0.442173721   4.551568506   4.766064365
H        1.239006703   5.439879051  -0.710285027
H        0.254522608  -0.676055864   6.723539998
H       -0.759356995  -0.484123015  -0.928382551
H        4.890685231  -1.034206234  -0.546072635
H        4.809771076  -0.081821142   4.980577712
H        4.893497115   6.775711819   0.703870114
H        6.711879456   4.781958497   5.169070835
H       -0.958250514   0.983811439   0.096450686
H        0.380388243   1.099932284   6.496042693
H       -0.509331363   5.373903532  -1.106668048
H       -0.890079041   4.303778234   5.947964606
H        4.030260671   5.398466692  -0.060748210
H        6.429274604   5.027809190   6.930730315
H        5.207758946  -1.013704496   1.225939021
H        5.696573324  -1.444471297   5.758025514
H        0.190366364   4.176443079   0.036899033
H        0.810675601   4.420673481   6.527026007
H       -0.817632834  -0.632286542   0.866340041
H        1.529141165  -0.000034099   5.650314294
H       -1.399396302   0.199022899   5.158322793
H        1.307783545   0.726479455  -0.705260595
H       -0.736866250   6.596403236   5.225731486
H        0.020843478   7.109730950   0.526527728
H        5.861270513   1.409796954   6.580146732
H        6.402218946   0.880017981  -0.724877001
H        4.816752638   6.229378393   4.740137392
H        6.980300322   5.793965805   0.060473539
H        0.831847100   6.752320218   5.801368599
H        0.642813961   5.984919314   1.582272103
H       -0.373771458  -0.878622921   4.376888811
H        1.459436924  -0.776445305   0.033334076
H        4.518842846   6.386087517   6.374408280
H        6.213595260   4.510042862  -0.717607625
H        6.662095066   0.160306481   7.327232089
H        6.584726121   0.901764216   0.932375629
H        1.274877196   0.606240748   0.954236972
H       -0.200251588   0.768517558   4.145196697
H       -0.985222878   5.978194781   1.212083932
H       -0.438421053   6.474557483   6.856167742
H        5.079161082   1.250003946   0.242563497
H        4.996635583   0.234602561   7.383320696
H        6.098484788   4.664651800   0.943910096
H        4.355447243   4.879709924   5.660755864
