CRYSTAL
PRIMVEC
11.2820 0 0
0 11.1747 0 
0 0 11.3552
PRIMCOORD
96 1
Pb       3.099749175   2.669754948   2.994257540
Pb       2.858838307   2.713729529   8.663445040
Pb       2.902858993   8.210025733   2.747761982
Pb       2.731300467   8.329062004   8.429652969
Pb       8.681254760   2.861767926   3.020292638
Pb       8.567864849   2.894298877   8.715683169
Pb       8.507785197   8.462765403   2.862658946
Pb       8.288089480   8.468811002   8.654471029
Cl       3.216748286   3.124174669   5.813539761
Cl       2.535797429   2.525736442   0.159610405
Cl       2.668398875   7.640253385   5.583753866
Cl       2.653292096   8.386881803  -0.080986074
Cl       8.162365981   2.849615020   5.807313798
Cl       8.922156336   2.408799127   0.148876005
Cl       8.392061163   8.487703164   5.746155581
Cl       8.277465760   9.052945288   0.084343868
Cl       2.716019125  -0.167955948   2.918902298
Cl       2.700872681  -0.042958112   8.289062258
Cl       3.814684798   5.409745030   2.694630197
Cl       2.282877823   5.522460250   8.834401490
Cl       9.122073146   0.063396033   3.354051763
Cl       8.144573673   0.113912833   8.337652761
Cl       7.939628269   5.644359154   2.878759303
Cl       8.553034650   5.690159692   9.503649815
Cl       5.938439884   2.115785057   2.621902192
Cl       5.720430899   2.903879871   9.234338738
Cl       5.697887502   8.853349418   3.144190329
Cl       5.528978244   8.300976384   8.115011042
Cl       0.267036350   3.107555656   3.311957276
Cl       0.040078593   2.654215902   8.012162224
Cl       0.041860166   8.078939535   2.545597906
Cl      -0.150591957   8.546995313   8.513656494
C        5.767003272   5.360309688   6.502590749
C        5.410765945   6.219419345  -0.219433897
C        5.215708038  -0.006720444   6.030431687
C        5.059197502  -0.459325344  -0.158445697
C       -0.605238920   5.891419894   5.783308837
C        0.116819534   5.203434529   0.668633206
C        0.594130844  -0.242881589   5.366262872
C        0.082726820  -0.257136743  -0.265305621
N        0.058983136   6.305143201  -0.331935555
N        0.661642500   5.109759810   5.830356811
N        0.171380617   0.412006268   1.063347775
N       -0.437568831  -0.164009161   6.440355616
N        5.990702385   4.950753875   0.308225200
N        5.716920596   6.250505238   5.306834709
N        6.273647954   0.401966966  -0.076269459
N        6.517640560   0.039626536   5.305771695
H        5.808652437   4.321829954   6.164300335
H        5.877398285   6.442265114  -1.183655909
H        4.663705910   0.917124242   5.825181427
H        5.085634146  -1.012969935  -1.103567312
H       -0.618055312   6.471865023   4.853454961
H       -0.080159583   4.255078852   0.158120425
H        1.580970799  -0.227613593   5.838398084
H        0.974581522   0.001326745  -0.846956488
H        4.169404842   0.178762913  -0.112480884
H        5.420633501  -0.101740802   7.100334484
H        5.612629980   7.021404359   0.499946044
H        4.863722393   5.533233611   7.096774503
H       -0.827213205   0.087723150  -0.768418015
H        0.472128299   0.621440806   4.706204032
H       -0.637352177   5.390948919   1.439858928
H       -0.630732002   6.570710478   6.642650062
H        4.330911529   6.084922727  -0.337743679
H        6.656860177   5.614674420   7.089293345
H        5.073918818  -1.151550342   0.689370002
H        4.653107978  -0.877266975   5.675487430
H        1.115968854   5.187031211   1.116963462
H       -1.450610680   5.192965203   5.810418718
H        0.041583599  -1.337361501  -0.104393263
H        0.447503085  -1.170576794   4.802410745
H       -0.350137719   0.725422205   6.970059966
H        0.245875422   1.430945974   0.952425243
H        1.478807678   5.749762973   5.794778081
H       -0.858819516   6.311052103  -0.816582333
H        7.072469168   0.872626362   5.581195167
H        6.297041751   1.085303980  -0.851473911
H        4.875087906   6.067189562   4.733758672
H        6.999877436   5.047932460   0.473581182
H        0.714802166   4.447476983   5.033450817
H        0.795160165   6.174402380  -1.056083619
H       -0.340895511  -0.947303489   7.119366912
H        1.017083485   0.108884652   1.591866372
H        6.531119277   6.110810739   4.681878600
H        5.850723409   4.178025725  -0.375648185
H        6.371486281   0.087750818   4.288970021
H        7.128335823  -0.181464357  -0.112015908
H       -0.654692545   0.215929923   1.656948373
H       -1.383198969  -0.214751659   6.043408623
H        0.220480837   7.212975035   0.126326342
H        0.726154560   4.545476245   6.691191233
H        6.279260166   0.943574568   0.810164785
H        7.084836398  -0.807456256   5.497437759
H        5.539177718   4.712932625   1.207139314
H        5.697200326   7.239552421   5.589224098
