CRYSTAL
PRIMVEC
11.2820 0 0
0 11.1747 0 
0 0 11.3552
PRIMCOORD
96 1
Pb       3.101895592   2.745733336   2.756744387
Pb       2.794449840   2.864000328   8.407275475
Pb       2.987613319   8.221494466   2.989238926
Pb       2.796990874   8.564361341   8.654842233
Pb       8.692494059   2.758404759   3.009246088
Pb       8.287106968   2.890779876   8.729071794
Pb       8.652077977   8.307485601   3.045986168
Pb       8.318238069   8.496807359   8.796791805
Cl       2.544429569   2.654360332   5.551319758
Cl       3.112365558   3.128902846  -0.127205845
Cl       2.681238228   8.580738591   5.835435843
Cl       3.365130394   8.205677002   0.128495758
Cl       8.629628553   2.851559615   5.916950971
Cl       8.397888425   2.696567310   0.209264079
Cl       8.512086412   8.370724879   5.911097303
Cl       8.013077038   8.219590126   0.222474343
Cl       3.213010466  -0.121606918   2.609730101
Cl       2.067607805   0.168343098   8.808763748
Cl       2.451649354   5.479874448   2.658437203
Cl       2.985336314   5.736056967   8.575040405
Cl       8.184697153  -0.041054691   3.071391559
Cl       8.883436818   0.120769224   8.774791556
Cl       8.992602225   5.547909095   3.531873157
Cl       7.550076395   5.706886931   8.511566095
Cl       5.903300655   3.038255139   3.417782486
Cl       5.567583182   2.317414445   8.235697430
Cl       5.818538258   8.024975853   3.351423700
Cl       5.581164991   9.127111038   8.446803042
Cl       0.267745090   2.216112679   2.593201780
Cl      -0.087591912   3.443064606   8.853611647
Cl       0.180010294   8.674116547   2.996984435
Cl      -0.090339349   7.859290564   8.885631418
C        4.861374669   5.459919556   5.703755226
C        5.871501289   5.333164241   0.842301886
C        5.435817029   0.009275164   5.426843640
C        5.657536501   0.350496449  -0.273146259
C        0.560904287   5.687481668   5.549905865
C       -0.381939727   5.602417779   0.683483755
C       -0.290582503  -0.020983314   5.910809551
C       -0.134194122  -0.523866657   0.254762878
N        0.762068874   5.647715515  -0.270781154
N       -0.598853077   5.656151258   6.491290647
N       -0.051391848   0.864739181  -0.274595092
N        0.928742436  -0.033099998   5.058157967
N        5.235009519   5.651773949  -0.466343613
N        6.320023454   5.632321013   5.473518386
N        5.834704616  -0.587347417   0.872635965
N        6.749258647   0.048690422   6.133185737
H        4.364355573   5.367257610   4.731768882
H        5.089443774   5.330799473   1.608638941
H        5.624533506   0.006573100   4.350419000
H        6.569847098   0.345057418  -0.878771188
H        1.479627464   5.762201455   6.141788445
H       -1.316955358   5.616679404   0.112444976
H       -0.885348564   0.866183222   5.667970196
H       -0.352943258  -1.204596566  -0.575706345
H        5.470069376   1.354947787   0.120456305
H        4.865885684   0.900696087   5.711610136
H        6.617075909   6.101756336   1.067215229
H        4.484111343   6.332741150   6.245194830
H       -0.928100924  -0.561977276   1.008398537
H        0.020267897   0.015909424   6.960524750
H       -0.316304954   6.472444243   1.345674047
H        0.451411895   6.557918789   4.894213384
H        6.340552048   4.346783522   0.775120865
H        4.709867867   4.548688719   6.290376205
H        4.806359260   0.014163773  -0.874149546
H        4.911272623  -0.903572695   5.729643124
H       -0.302824329   4.684801047   1.276127460
H        0.557160832   4.766588047   4.959009910
H        0.826437575  -0.775920008   0.717017651
H       -0.863857281  -0.934559726   5.719033070
H        1.489366965   0.832385704   5.203531652
H       -0.948608819   1.154683762  -0.685107213
H       -0.600753162   6.494596091   7.101155602
H        0.701566738   6.483177728  -0.882711449
H        7.285484806   0.903072688   5.900684940
H        6.614930577  -0.297664436   1.494760536
H        6.487096681   6.477306673   4.898478034
H        4.717211725   6.552059554  -0.411508720
H       -0.543237241   4.833167620   7.121231466
H        0.743008618   4.830510954  -0.907619609
H        0.693886748  -0.090015686   4.059901511
H        0.673013472   0.913486502  -1.015631927
H        6.700655719   4.822336275   4.960696532
H        4.537928894   4.925750512  -0.703710286
H        7.327247630  -0.778027524   5.897688465
H        6.056855358  -1.541020315   0.551103804
H        0.172389269   1.518075215   0.501392431
H        1.525764363  -0.854024240   5.286332979
H        1.656260857   5.650366656   0.239233452
H       -1.478013282   5.616718177   5.956873342
H        4.969496851  -0.613403191   1.449415186
H        6.604597194   0.042305646   7.152244873
H        5.926840635   5.708599319  -1.235935178
H        6.825915031   5.726147637   6.373280828
