CRYSTAL
PRIMVEC
11.2820 0 0
0 11.1747 0 
0 0 11.3552
PRIMCOORD
96 1
Pb       2.900849725   2.791512519   2.886819390
Pb       2.708052522   2.968514500   8.548638130
Pb       2.924705778   8.434329846   2.764274756
Pb       2.989337362   8.544118881   8.519580450
Pb       8.539282773   2.621980605   3.175504050
Pb       8.379280366   2.716984246   8.876121037
Pb       8.541850171   8.234723519   3.035605504
Pb       8.590926675   8.354932392   8.743420789
Cl       2.657416363   2.145240246   5.711952005
Cl       2.901705996   3.406141066   0.039994037
Cl       2.704272334   9.032593525   5.640734565
Cl       3.322489123   7.980136099  -0.037994791
Cl       8.430766553   3.013999083   6.035507544
Cl       8.302223495   2.242530477   0.361354945
Cl       8.772377055   7.731157711   5.910428082
Cl       8.047645860   8.552763012   0.238336703
Cl       3.172741565   0.044512868   2.086447702
Cl       2.527615905   0.179065014   9.015953104
Cl       2.522221684   5.616771333   3.225579434
Cl       2.880855280   5.775163572   7.902524093
Cl       8.138947252  -0.162703458   3.329090479
Cl       8.908475470  -0.027438733   8.364767760
Cl       8.821862965   5.408366048   2.677849200
Cl       8.251155371   5.544115395   9.158785277
Cl       5.713356027   2.649966882   3.185608884
Cl       5.499952403   3.104513642   8.570334152
Cl       5.686848995   8.327721256   3.345426525
Cl       5.804758670   8.151555620   8.281481217
Cl       0.098624446   2.461182853   2.748019533
Cl      -0.123881313   3.119965125   9.252369235
Cl       0.086749078   8.329593884   2.872475313
Cl       0.169970244   8.332322484   8.445690370
C        5.280776698   5.475834090   5.362969495
C        5.854465098   5.382861116   0.801524036
C        5.976981553   0.114436795   6.232307967
C        5.643171595  -0.022499620  -0.701379305
C       -0.095449718   5.021738717   5.774596135
C        0.128261898   6.252281475  -0.238152629
C       -0.601321450  -0.092718405   5.415624588
C       -0.350909060  -0.460643629   0.024385666
N        0.189623392   5.239937450   0.856505584
N        0.511968904   6.381572293   5.758107466
N        0.453187973   0.792717293   0.065189537
N        0.413494164  -0.057527840   6.504346174
N        5.446919336   5.657696519  -0.604100542
N        6.416384205   5.511829595   6.325921140
N        6.130980112  -0.083531882   0.703013582
N        5.224676065  -0.030154818   4.952636225
H        5.685407591   5.406589643   4.348512237
H        4.949823776   5.222452168   1.398539883
H        5.614619262   1.009535553   6.751388306
H        6.508198555  -0.095194212  -1.372104819
H       -0.932299877   5.007776501   5.068940568
H        1.078591252   6.237933425  -0.780957820
H       -0.086219533  -0.059292985   4.450048396
H       -0.138552570  -0.982388778  -0.915932547
H        5.117551978   0.925530535  -0.856686456
H        7.040815898   0.219725607   5.996596218
H        6.411695840   6.249728552   1.170459199
H        4.695700078   6.393415214   5.477249713
H       -1.411003894  -0.192922660   0.079479881
H       -1.265297432   0.769834398   5.533167209
H       -0.036487196   7.235927837   0.214067869
H       -0.454564382   4.812828825   6.788539032
H        6.489394728   4.490386022   0.817211036
H        4.662843193   4.599814210   5.588495354
H        4.963202329  -0.864310621  -0.866041466
H        5.811423169  -0.783145856   6.839213293
H       -0.695783852   5.984618352  -0.907446565
H        0.669588475   4.292431712   5.482311824
H       -0.073161671  -1.083966015   0.882277494
H       -1.180700515  -1.016833320   5.511350687
H        1.018436701   0.781205078   6.427974780
H        0.193693905   1.444982989  -0.702043220
H       -0.195276987   7.088487442   6.015887988
H        0.954636598   5.442069093   1.526409917
H        5.391237811   0.790910672   4.337797302
H        6.781462021   0.703129191   0.888360212
H        7.043552018   6.323579159   6.162456771
H        4.823250648   6.487143678  -0.635653262
H        0.876699824   6.610842855   4.822571736
H        0.368688799   4.305266990   0.468856938
H        1.053408730  -0.870541437   6.429833569
H        1.457135484   0.594493546  -0.038520234
H        7.003201035   4.654350696   6.256581226
H        4.941111096   4.853403448  -1.000662119
H        4.213669711  -0.103922471   5.128712152
H        6.662660314  -0.961403713   0.853878821
H        0.313005511   1.298696193   0.963966185
H       -0.045076474  -0.083089330   7.425922183
H       -0.696982876   5.216700272   1.403652275
H        1.296316572   6.429638365   6.435007270
H        5.333779209  -0.037503796   1.360903824
H        5.514895533  -0.885225592   4.438860661
H        6.282564662   5.821523306  -1.198780224
H        6.079593120   5.581147206   7.293112131
