CRYSTAL
PRIMVEC
11.2820 0 0
0 11.1747 0 
0 0 11.3552
PRIMCOORD
96 1
Pb       2.822692914   2.875144233   3.049298858
Pb       3.009016184   2.985141445   8.721461347
Pb       2.759650760   8.544189212   3.171258781
Pb       2.887887871   8.563584987   8.765014844
Pb       8.535764070   2.643694750   2.846906619
Pb       8.729382524   2.609298157   8.510760111
Pb       8.419258670   8.186754379   2.934858818
Pb       8.501585558   8.262061712   8.533370824
Cl       3.041336743   3.602001024   5.859182214
Cl       3.138603072   2.479451571   0.187516885
Cl       2.912644338   7.743372385   5.957184843
Cl       2.461282486   8.955326315   0.266470185
Cl       8.570407789   2.107455419   5.707451626
Cl       8.154937851   2.907739802   0.004721264
Cl       8.776869934   8.656927262   5.732376586
Cl       8.757551670   7.708871129   0.069770267
Cl       2.751920927   0.151200939   4.015711671
Cl       3.365271981   0.194364854   8.368140518
Cl       2.682060372   5.724656604   2.624119887
Cl       2.768692019   5.776211720   9.382350687
Cl       8.721767957  -0.174453508   2.491573842
Cl       8.498031447  -0.175928490   9.235785253
Cl       8.294178628   5.406248869   3.286937997
Cl       8.765554852   5.421711431   8.328768860
Cl       5.700632163   2.618759632   3.154213244
Cl       5.879725137   2.955034947   8.493697681
Cl       5.579846599   8.336637377   3.069124093
Cl       5.666092323   8.319129665   9.094522347
Cl       0.070250937   2.581133785   2.920466348
Cl       0.253619076   2.814954244   8.331646652
Cl      -0.040111416   8.411627470   2.950107262
Cl       0.020468336   8.264622279   8.828945762
C        6.110423992   5.922566675   6.070877358
C        5.516243433   5.450016817   0.516417969
C        5.992794638  -0.368760698   5.983827936
C        5.785125140  -0.472626592   0.555146342
C       -0.250511438   5.505005445   5.482551377
C       -0.225132096   4.916788906   0.139335287
C        0.247603521  -0.377884280   6.379088612
C        0.094747771   0.589656859  -0.229036097
N        0.454920980   6.234324623   0.279384265
N        0.508133449   5.669103163   6.756647305
N       -0.404746198  -0.752221804   0.175409804
N       -0.353064043  -0.024454565   5.063844923
N        6.302448108   5.557289598  -0.746482760
N        5.350308526   5.633637950   4.821883542
N        5.722360979   0.665932893  -0.407027038
N        5.329908490   0.963134112   5.889008552
H        7.109201999   6.278088629   5.796464929
H        4.465395606   5.282029868   0.260241229
H        5.720484405  -0.958288191   5.100610396
H        4.868635473  -1.063743266   0.453815498
H        0.216374101   4.701804643   4.901260350
H       -0.770350424   4.908377541  -0.811127445
H        0.927414840  -1.225503413   6.234944680
H        0.785687527   0.955198048   0.536772324
H        5.872816664  -0.062905627   1.566804537
H        5.641948311  -0.866899211   6.895132840
H        5.623054729   6.388644842   1.072454387
H        6.186021889   5.001373311   6.658862896
H       -0.763303906   1.265457168  -0.318035456
H       -0.558854459  -0.654328433   7.065828675
H       -0.923352798   4.797346869   0.974109410
H       -0.214428667   6.448501602   4.926600778
H        5.908894281   4.610907367   1.101376409
H        5.565837718   6.690314022   6.632943872
H        6.663164547  -1.082384164   0.316275429
H        7.075819152  -0.218372395   6.017526144
H        0.533838869   4.126284373   0.161497040
H       -1.286112043   5.248034464   5.725926684
H        0.612937954   0.498740370  -1.189848321
H        0.797905643   0.488845632   6.759627882
H       -0.826174823  -0.838247316   4.646156862
H       -0.961441102  -0.690255122   1.050629375
H        1.484449015   5.949082296   6.566605684
H       -0.247036030   6.991427348   0.268933298
H        4.307611151   0.852292084   5.824892883
H        4.890556191   1.264708174  -0.215107633
H        5.831533317   4.919122916   4.255107569
H        5.972984886   6.364713053  -1.314566678
H        0.506484011   4.783875867   7.296416257
H        1.124065532   6.380093307  -0.497431097
H        0.377964807   0.296785954   4.409085903
H        0.395397619  -1.400845727   0.313449043
H        5.267911783   6.489233294   4.238292954
H        6.234156741   4.700476400  -1.319697111
H        5.628473840   1.481130303   5.039063641
H        5.643652950   0.332270247  -1.374962221
H       -1.026100738  -1.140018847  -0.547636593
H       -1.062879219   0.727099438   5.171972892
H        1.002327097   6.279559981   1.157974034
H        0.098696291   6.402924589   7.358682793
H        6.566018235   1.266583197  -0.343857277
H        5.536950528   1.553427935   6.712630340
H        7.300254878   5.722262847  -0.551046267
H        4.405636049   5.275275799   5.046493680
