CRYSTAL
PRIMVEC
11.2820 0 0
0 11.1747 0 
0 0 11.3552
PRIMCOORD
96 1
Pb       2.771251322   2.831485220   3.028568611
Pb       2.990286930   2.670971416   8.585489095
Pb       2.794358071   8.416022663   3.026350662
Pb       3.007226402   8.330381622   8.632867142
Pb       8.415821996   2.861386201   2.967354459
Pb       8.548139196   2.740616164   8.582060514
Pb       8.501375611   8.468146506   2.983138758
Pb       8.648559055   8.351740385   8.646453968
Cl       2.577474502   1.973246003   5.850391048
Cl       2.610584482   2.893931797   0.179875081
Cl       3.129024849   8.940957249   5.858572007
Cl       2.959036819   8.205876269   0.185539584
Cl       8.623116875   3.107976693   5.769346975
Cl       8.321195898   2.597169248   0.088182531
Cl       8.429025667   8.271896242   5.834998326
Cl       8.098602934   8.643948898   0.138090670
Cl       2.592459124   0.032053105   2.735123976
Cl       3.586616225  -0.105865433   9.041880712
Cl       3.299274177   5.631009793   3.343763025
Cl       2.778053260   5.476212128   7.782231866
Cl       8.239353656   0.067394934   3.097277209
Cl       8.276911349  -0.044730902   8.515600625
Cl       8.466466746   5.659749711   2.280363276
Cl       9.371537943   5.541490376   8.795651422
Cl       5.610068333   2.798586046   2.993029907
Cl       5.751508721   2.985816600   8.632012672
Cl       5.646048441   8.511729262   3.185703644
Cl       5.824832164   7.853336780   8.729834952
Cl      -0.010830300   3.232462256   3.082196441
Cl       0.129853631   2.403690539   8.950340779
Cl       0.015131468   8.566415559   3.170753780
Cl       0.233736318   9.114306327   8.587873156
C        6.222246430   5.376728306   5.694796799
C        5.521680614   5.159649316  -0.195814195
C        6.083917998   0.112438428   6.071235423
C        5.285759449   0.084029973   0.695559346
C       -0.084320856   5.954403324   5.332722816
C        0.459165730   5.843183906   0.135558406
C       -0.682291616   0.444781109   5.746510385
C       -0.247866423  -0.021139136   0.469171943
N       -0.326352167   4.577057076   0.149150379
N        0.050345904   4.832174364   6.304032879
N        1.069199223  -0.047442905  -0.232445903
N        0.421621063  -0.554171206   5.723483176
N        5.600569633   6.124662144   0.939986664
N        5.354048468   6.577614636   5.840715639
N        6.300373366   0.091701847  -0.391673482
N        5.245648616   0.151890774   4.838247692
H        7.263322650   5.710316687   5.651681134
H        6.284169580   5.427575209  -0.933713371
H        5.954160135   1.053044355   6.618004067
H        4.659852661  -0.807158317   0.581936600
H        0.716637243   5.873664864   4.590399276
H        1.518165021   5.593305103   0.253236535
H       -0.629945966   1.044268144   4.832366021
H       -0.835512222   0.813101033   0.069567487
H        4.671227258   0.986617794   0.613287428
H        7.127502611  -0.019148521   5.772477535
H        4.526389317   5.224514946  -0.648070409
H        5.943923508   4.849050900   4.775854559
H       -0.066627119   0.105908571   1.541406406
H       -0.544462385   1.080271320   6.627150007
H        0.120517323   6.471961760   0.967944748
H       -0.009039895   6.898311704   5.883002766
H        5.701553550   4.152131244   0.192348552
H        6.068809111   4.726951923   6.563858183
H        5.815493410   0.066542193   1.653180609
H        5.755149054  -0.729481705   6.689928146
H        0.285029640   6.350171507  -0.820207367
H       -1.061640502   5.883207682   4.843903098
H       -0.768316822  -0.967129573   0.279961345
H       -1.637636272  -0.085920549   5.804648353
H        1.333110830  -0.074240184   5.653543573
H        1.580103837   0.847641084  -0.107644377
H        0.989776486   4.860156859   6.753577351
H       -0.189251304   4.072908813   1.048220003
H        5.504192951   0.952941805   4.229712611
H        5.844179273   0.109413271  -1.314948860
H        5.466229685   7.229113128   5.043972622
H        5.457552631   7.090276961   0.620249376
H       -0.096184233   3.928299538   5.838713840
H       -0.051146617   3.943216541  -0.623892271
H        0.331258610  -1.202132791   4.919135716
H        0.938845964  -0.206938053  -1.242216807
H        5.582383018   7.089408147   6.718289632
H        6.538484594   6.067330677   1.394739963
H        4.248327291   0.254642127   5.074066955
H        6.906382936  -0.753051875  -0.339029692
H        1.676027310  -0.805200696   0.117429343
H        0.426200354  -1.117308035   6.597529443
H       -1.332753213   4.761400606   0.048501428
H       -0.654289015   4.924528355   7.063971746
H        6.925328698   0.917667705  -0.318722076
H        5.359590568  -0.719020411   4.289131941
H        4.885538998   5.927045043   1.664473691
H        4.361879447   6.313351310   5.893975680
